:3n7a_ligand
                    3D
 Schrodinger Suite 2020-1.
 21 21  0  0  1  0            999 V2000
   44.1930    7.4980   26.9400 C   0  0  0  0  0  0
   43.1350    7.7950   25.8900 C   0  0  1  0  0  0
   42.6860    9.1730   26.0020 O   0  0  0  0  0  0
   43.7180    7.5280   24.5000 C   0  0  2  0  0  0
   42.6520    7.6230   23.5870 O   0  0  0  0  0  0
   44.3450    6.1470   24.4450 C   0  0  0  0  0  0
   44.7570    5.4970   25.6020 C   0  0  0  0  0  0
   45.9970    5.7860   27.5490 C   0  0  0  0  0  0
   46.4530    6.8120   28.4250 O   0  0  0  0  0  0
   43.6030    5.1380   27.5580 O   0  0  0  0  0  0
   46.1060    4.4790   28.0570 O   0  5  0  0  0  0
   44.6090    6.0040   26.9170 C   0  0  1  0  0  0
   43.8381    7.7867   27.9230 H   0  0  0  0  0  0
   45.0532    8.1395   26.7395 H   0  0  0  0  0  0
   42.2694    7.1539   26.0670 H   0  0  0  0  0  0
   41.8442    9.1811   26.4427 H   0  0  0  0  0  0
   44.4795    8.2625   24.2372 H   0  0  0  0  0  0
   41.9579    7.0502   23.8744 H   0  0  0  0  0  0
   44.4904    5.6938   23.4736 H   0  0  0  0  0  0
   45.1947    4.5126   25.4977 H   0  0  0  0  0  0
   43.9468    4.2548   27.6040 H   0  0  0  0  0  0
  1  2  1  0  0  0
  1 12  1  0  0  0
  1 13  1  0  0  0
  1 14  1  0  0  0
  2  3  1  0  0  0
  2  4  1  0  0  0
  2 15  1  0  0  0
  3 16  1  0  0  0
  4  5  1  0  0  0
  4  6  1  0  0  0
  4 17  1  0  0  0
  5 18  1  0  0  0
  6  7  2  0  0  0
  6 19  1  0  0  0
  7 12  1  0  0  0
  7 20  1  0  0  0
  8  9  2  0  0  0
  8 11  1  0  0  0
  8 12  1  0  0  0
 10 12  1  0  0  0
 10 21  1  0  0  0
M  CHG  1  11  -1
M  END
> <s_pdb_PDB_ID>


> <s_pdb_PDB_CLASSIFICATION>
3N7A_PROTEIN

> <s_pdb_PDB_format_version>
3.0

> <b_ppw_prepared>
1

> <s_ppw_prepared_with_version>
2020-1

> <b_ppw_created_disulfur>
1

> <s_ppw_het_states>
eJxlj0sOgCAMRK9CWIPhJ4hXMdzAuHNFvLvFik6UBXm8DGmnSitnsdCxPkerhClKXOyAPXAAHoEjcAKegPPLyQDTXG374xrcHn2le5seuFVC5Tjl/yqACqzGv4qgIivq4KDPd+LEqQwpVq3MJ4UfW+9HkdNmIFMPJbZ9Xfku5TgB6Q1Xhg==

> <r_ff_Potential_Energy-OPLS3e>
-523357.51659162

> <r_ff_RMS_Derivative-OPLS3e>
0.048464748626526

> <b_ff_Minimization_Converged-OPLS3e>
1

> <r_i_Potential_Energy-OPLS_2005>
-52569.1698297459

> <r_i_RMS_Derivative-OPLS_2005>
0.0533674821074524

> <r_i_Max_Derivative-OPLS_2005>
4.42890974504435

> <r_i_Stretch_Energy-OPLS_2005>
55.9854590897708

> <r_i_Bend_Energy-OPLS_2005>
1553.03461320774

> <r_i_LJ-14_Energy-OPLS_2005>
2347.13194259967

> <r_i_El-14_Energy-OPLS_2005>
-2537.03999196957

> <r_i_Van_der_Waals_Energy-OPLS_2005>
-3887.52209827155

> <r_i_Electrostatic_Energy-OPLS_2005>
-51011.8322592389

> <r_i_Dihedral_Energy-OPLS_2005>
911.072504836928

> <r_i_target_temperature>
298

> <s_user_Residue_ID>
_:1

$$$$
