:1u1b_ligand
                    3D
 Schrodinger Suite 2020-1.
 74 78  0  0  1  0            999 V2000
  -30.2210  -29.4080   17.2920 P   0  0  0  0  0  0
  -31.3890  -30.1680   17.9270 O   0  0  0  0  0  0
  -30.3730  -29.0440   15.8110 O   0  5  0  0  0  0
  -29.9020  -28.0700   18.0980 O   0  0  0  0  0  0
  -28.1590  -30.8560   18.7490 P   0  0  0  0  0  0
  -27.0860  -29.9510   19.2030 O   0  0  0  0  0  0
  -29.2100  -31.2550   19.7120 O   0  5  0  0  0  0
  -28.8710  -30.2140   17.4950 O   0  0  0  0  0  0
  -34.8930  -26.7760   18.1550 P   0  0  0  0  0  0
  -34.7020  -26.9210   19.6630 O   0  0  0  0  0  0
  -36.1220  -25.9620   17.7740 O   0  5  0  0  0  0
  -34.8950  -28.1500   17.4600 O   0  5  0  0  0  0
  -29.7730  -23.9820   16.1300 N   0  0  0  0  0  0
  -28.8580  -24.4270   15.1830 C   0  0  0  0  0  0
  -28.7370  -25.6860   14.6560 N   0  0  0  0  0  0
  -27.7210  -25.7640   13.7410 C   0  0  0  0  0  0
  -26.8770  -24.7630   13.3350 N   0  0  0  0  0  0
  -27.0260  -23.5070   13.8830 C   0  0  0  0  0  0
  -26.2020  -22.5460   13.4760 N   0  0  0  0  0  0
  -28.0660  -23.3020   14.8620 C   0  0  0  0  0  0
  -28.4730  -22.1930   15.5880 N   0  0  0  0  0  0
  -29.4760  -22.6410   16.3160 C   0  0  0  0  0  0
  -30.8270  -27.5380   19.0200 C   0  0  0  0  0  0
  -31.4240  -26.2850   18.4610 C   0  0  1  0  0  0
  -30.3690  -25.3940   17.9690 O   0  0  0  0  0  0
  -30.8710  -24.6990   16.8490 C   0  0  2  0  0  0
  -31.6670  -25.7980   16.1180 C   0  0  2  0  0  0
  -32.5430  -25.2970   15.1170 O   0  0  0  0  0  0
  -32.3640  -26.5250   17.2780 C   0  0  2  0  0  0
  -33.6160  -25.9150   17.6040 O   0  0  0  0  0  0
  -25.7810  -33.8130   14.1660 O   0  0  0  0  0  0
  -27.0380  -33.6820   14.8750 C   0  0  0  0  0  0
  -26.8140  -33.6990   16.3790 C   0  0  1  0  0  0
  -25.5540  -34.3540   16.6930 O   0  0  0  0  0  0
  -24.8450  -33.5810   17.6400 C   0  0  2  0  0  0
  -25.2930  -32.1420   17.4180 C   0  0  0  0  0  0
  -26.7470  -32.3010   17.0050 C   0  0  2  0  0  0
  -27.5880  -32.2610   18.1600 O   0  0  0  0  0  0
  -25.4210  -32.9050   12.8410 P   0  0  0  0  0  0
  -24.3250  -33.6930   12.0980 O   0  0  0  0  0  0
  -24.9230  -31.5400   13.3680 O   0  5  0  0  0  0
  -26.7240  -32.7970   12.0290 O   0  5  0  0  0  0
  -23.3680  -33.7610   17.4380 N   0  0  0  0  0  0
  -22.7850  -33.7800   16.1450 C   0  0  0  0  0  0
  -22.5700  -33.9130   18.5980 C   0  0  0  0  0  0
  -23.0220  -33.9050   19.7200 O   0  0  0  0  0  0
  -21.2080  -34.0720   18.3510 N   0  0  0  0  0  0
  -20.5700  -34.0950   17.0950 C   0  0  0  0  0  0
  -19.3450  -34.2320   17.0580 O   0  0  0  0  0  0
  -21.4570  -33.9380   15.9370 C   0  0  0  0  0  0
  -20.9140  -33.9420   14.5430 C   0  0  0  0  0  0
  -27.5664  -26.7330   13.2890 H   0  0  0  0  0  0
  -26.2939  -21.5991   13.8237 H   0  0  0  0  0  0
  -25.4453  -22.7697   12.8457 H   0  0  0  0  0  0
  -29.9716  -22.0925   17.0892 H   0  0  0  0  0  0
  -30.3282  -27.3690   19.9665 H   0  0  0  0  0  0
  -31.6409  -28.2139   19.2563 H   0  0  0  0  0  0
  -31.9606  -25.7648   19.2562 H   0  0  0  0  0  0
  -31.5327  -23.9041   17.2002 H   0  0  0  0  0  0
  -30.9601  -26.4832   15.6562 H   0  0  0  0  0  0
  -33.3025  -24.9481   15.5611 H   0  0  0  0  0  0
  -32.4975  -27.5795   17.0389 H   0  0  0  0  0  0
  -27.6409  -34.5445   14.5914 H   0  0  0  0  0  0
  -27.5960  -32.8016   14.5537 H   0  0  0  0  0  0
  -27.6246  -34.2570   16.8498 H   0  0  0  0  0  0
  -25.1331  -33.9628   18.6209 H   0  0  0  0  0  0
  -24.7262  -31.7216   16.5865 H   0  0  0  0  0  0
  -25.1317  -31.5344   18.3080 H   0  0  0  0  0  0
  -27.0366  -31.5145   16.3073 H   0  0  0  0  0  0
  -23.4428  -33.6538   15.2974 H   0  0  0  0  0  0
  -20.6096  -34.2031   19.1611 H   0  0  0  0  0  0
  -20.3549  -34.8592   14.3566 H   0  0  0  0  0  0
  -21.6995  -33.8712   13.7887 H   0  0  0  0  0  0
  -20.2416  -33.0947   14.4026 H   0  0  0  0  0  0
  1  2  2  0  0  0
  1  3  1  0  0  0
  1  4  1  0  0  0
  1  8  1  0  0  0
  4 23  1  0  0  0
  5  6  2  0  0  0
  5  7  1  0  0  0
  5  8  1  0  0  0
  5 38  1  0  0  0
  9 10  2  0  0  0
  9 11  1  0  0  0
  9 12  1  0  0  0
  9 30  1  0  0  0
 13 14  1  0  0  0
 13 22  1  0  0  0
 13 26  1  0  0  0
 14 15  2  0  0  0
 14 20  1  0  0  0
 15 16  1  0  0  0
 16 17  2  0  0  0
 16 52  1  0  0  0
 17 18  1  0  0  0
 18 19  1  0  0  0
 18 20  2  0  0  0
 19 53  1  0  0  0
 19 54  1  0  0  0
 20 21  1  0  0  0
 21 22  2  0  0  0
 22 55  1  0  0  0
 23 24  1  0  0  0
 23 56  1  0  0  0
 23 57  1  0  0  0
 24 25  1  0  0  0
 24 29  1  0  0  0
 24 58  1  0  0  0
 25 26  1  0  0  0
 26 27  1  0  0  0
 26 59  1  0  0  0
 27 28  1  0  0  0
 27 29  1  0  0  0
 27 60  1  0  0  0
 28 61  1  0  0  0
 29 30  1  0  0  0
 29 62  1  0  0  0
 31 32  1  0  0  0
 31 39  1  0  0  0
 32 33  1  0  0  0
 32 63  1  0  0  0
 32 64  1  0  0  0
 33 34  1  0  0  0
 33 37  1  0  0  0
 33 65  1  0  0  0
 34 35  1  0  0  0
 35 36  1  0  0  0
 35 43  1  0  0  0
 35 66  1  0  0  0
 36 37  1  0  0  0
 36 67  1  0  0  0
 36 68  1  0  0  0
 37 38  1  0  0  0
 37 69  1  0  0  0
 39 40  2  0  0  0
 39 41  1  0  0  0
 39 42  1  0  0  0
 43 44  1  0  0  0
 43 45  1  0  0  0
 44 50  2  0  0  0
 44 70  1  0  0  0
 45 46  2  0  0  0
 45 47  1  0  0  0
 47 48  1  0  0  0
 47 71  1  0  0  0
 48 49  2  0  0  0
 48 50  1  0  0  0
 50 51  1  0  0  0
 51 72  1  0  0  0
 51 73  1  0  0  0
 51 74  1  0  0  0
M  CHG  6   3  -1   7  -1  11  -1  12  -1  41  -1  42  -1
M  END
> <s_pdb_PDB_ID>


> <s_pdb_PDB_CLASSIFICATION>
1U1B_PROTEIN

> <s_pdb_PDB_format_version>
3.0

> <b_ppw_prepared>
1

> <s_ppw_prepared_with_version>
2020-1

> <b_ppw_created_disulfur>
1

> <s_ppw_het_states>
eJxdlMFywyAMRH/F47ObQRKG0F/p+A8yvfWUyb8Xr0JWpofOssg8AUueq6zfy0//a61sSzq2pav6Ufdt+RKX7W1KSolSKHXUdm20M+VOWUJxDfrOEgKFQCFQlJI8IU/Ik0JZKUkT0pQ0JU1JU9KUNCVNSVPSlDQlzUgz0ow0I81IM9IsnKWFszTyjLxMXiYvk5fJy+Rl8jJ2d2oPDfKiHhIMO1fCsMWhZ4OR8ksYt59QIO/lPobOFTYZFoyMip1ruFHmijoZ5/2FFHoAL4bUyTjjMQzfSyLWDS4q6FT4CSRSrAy0Z3lUGIw8G9wc1ke6R0UZnY4Kb517gUTIrwYpmIubg8QLGAY6VZuNsMZ8porGtE6GhU8qKhgH9UNuk2GhD7Ru3It5HGQ2uCjm4hqQMUFoCQ9ML0aZK7gX88baZOTQGDrNXBRzeIJXg41B4jkOA7d/Pkq9GDxkSDxQOR9ouu332jt5rmf8+g99ulmq/aNzrO9xaT4uY75jV017w7jVUl/b8vv3ePj/43j9A4VDQvY=

> <r_ff_Potential_Energy-OPLS3e>
-8482.12766291921

> <r_ff_RMS_Derivative-OPLS3e>
0.0354676716900827

> <b_ff_Minimization_Converged-OPLS3e>
1

> <r_i_Potential_Energy-OPLS_2005>
-3473.46020376355

> <r_i_RMS_Derivative-OPLS_2005>
0.046196835533964

> <r_i_Max_Derivative-OPLS_2005>
0.98590663956741

> <r_i_Stretch_Energy-OPLS_2005>
5.19482269102579

> <r_i_Bend_Energy-OPLS_2005>
80.3645583263428

> <r_i_LJ-14_Energy-OPLS_2005>
180.606328882985

> <r_i_El-14_Energy-OPLS_2005>
-98.5176021827153

> <r_i_Van_der_Waals_Energy-OPLS_2005>
-178.536326132584

> <r_i_Electrostatic_Energy-OPLS_2005>
-3492.88358768561

> <r_i_Dihedral_Energy-OPLS_2005>
30.3116023370031

> <r_i_target_temperature>
298

> <s_user_Residue_ID>
_:1

$$$$
