:3fv1_ligand
                    3D
 Schrodinger Suite 2020-1.
 44 45  0  0  1  0            999 V2000
   -9.0150   11.3910   19.7050 C   0  0  0  0  0  0
   -9.9920   12.4710   19.8030 N   0  3  0  0  0  0
  -10.0650   13.2430   21.0470 C   0  0  2  0  0  0
  -11.2010   14.2510   20.9770 C   0  0  2  0  0  0
  -11.1390   14.9900   19.7440 O   0  0  0  0  0  0
  -11.1220   15.2350   22.1390 C   0  0  0  0  0  0
   -9.9040   15.9730   22.0770 O   0  0  0  0  0  0
   -8.7580   15.1170   22.2720 C   0  0  2  0  0  0
   -7.5280   15.8850   21.8370 C   0  0  0  0  0  0
   -8.7380   13.9400   21.3060 C   0  0  2  0  0  0
   -8.2900   14.5050   20.0750 O   0  0  0  0  0  0
   -7.4600   15.6540   20.3290 C   0  0  1  0  0  0
   -8.0510   16.8610   19.6090 C   0  0  0  0  0  0
   -9.2220   16.7820   19.1390 O   0  0  0  0  0  0
   -7.3530   17.8920   19.4920 O   0  5  0  0  0  0
   -6.0250   15.3570   19.9050 C   0  0  0  0  0  0
   -5.7980   15.2430   18.3960 C   0  0  1  0  0  0
   -4.3360   15.4470   18.1430 C   0  0  0  0  0  0
   -3.6970   14.5950   17.4910 O   0  0  0  0  0  0
   -3.8250   16.4790   18.6080 O   0  0  0  0  0  0
   -6.2230   13.9540   17.8620 N   0  3  0  0  0  0
   -9.1324   10.8604   18.7648 H   0  0  0  0  0  0
   -7.9892   11.7542   19.7665 H   0  0  0  0  0  0
   -9.1904   10.6693   20.4983 H   0  0  0  0  0  0
  -10.9047   12.0525   19.6580 H   0  0  0  0  0  0
   -9.8179   13.1196   19.0437 H   0  0  0  0  0  0
  -10.2716   12.5619   21.8723 H   0  0  0  0  0  0
  -12.1324   13.6911   21.0055 H   0  0  0  0  0  0
  -10.3578   15.5359   19.7351 H   0  0  0  0  0  0
  -11.2606   14.7607   23.0966 H   0  0  0  0  0  0
  -11.9306   15.9617   22.0620 H   0  0  0  0  0  0
   -8.7045   14.7954   23.3129 H   0  0  0  0  0  0
   -6.6595   15.4658   22.3389 H   0  0  0  0  0  0
   -7.5536   16.9352   22.1125 H   0  0  0  0  0  0
   -7.9825   13.2241   21.6284 H   0  0  0  0  0  0
   -5.7275   14.4254   20.3666 H   0  0  0  0  0  0
   -5.4106   16.1309   20.3641 H   0  0  0  0  0  0
   -6.3802   15.9893   17.8732 H   0  0  0  0  0  0
   -4.4310   15.9337   17.1847 H   0  0  0  0  0  0
   -3.4970   13.8715   18.0678 H   0  0  0  0  0  0
   -3.8445   16.4100   19.5520 H   0  0  0  0  0  0
   -6.0153   13.9333   16.8712 H   0  0  0  0  0  0
   -5.7463   13.1874   18.3166 H   0  0  0  0  0  0
   -7.2262   13.8538   17.9716 H   0  0  0  0  0  0
  1  2  1  0  0  0
  1 22  1  0  0  0
  1 23  1  0  0  0
  1 24  1  0  0  0
  2  3  1  0  0  0
  2 25  1  0  0  0
  2 26  1  0  0  0
  3  4  1  0  0  0
  3 10  1  0  0  0
  3 27  1  0  0  0
  4  5  1  0  0  0
  4  6  1  0  0  0
  4 28  1  0  0  0
  5 29  1  0  0  0
  6  7  1  0  0  0
  6 30  1  0  0  0
  6 31  1  0  0  0
  7  8  1  0  0  0
  8  9  1  0  0  0
  8 10  1  0  0  0
  8 32  1  0  0  0
  9 12  1  0  0  0
  9 33  1  0  0  0
  9 34  1  0  0  0
 10 11  1  0  0  0
 10 35  1  0  0  0
 11 12  1  0  0  0
 12 13  1  0  0  0
 12 16  1  0  0  0
 13 14  2  0  0  0
 13 15  1  0  0  0
 16 17  1  0  0  0
 16 36  1  0  0  0
 16 37  1  0  0  0
 17 18  1  0  0  0
 17 21  1  0  0  0
 17 38  1  0  0  0
 18 19  1  0  0  0
 18 20  1  0  0  0
 18 39  1  0  0  0
 19 40  1  0  0  0
 20 41  1  0  0  0
 21 42  1  0  0  0
 21 43  1  0  0  0
 21 44  1  0  0  0
M  CHG  3   2   1  15  -1  21   1
M  END
> <s_pdb_PDB_ID>


> <s_pdb_PDB_CLASSIFICATION>
3FV1_PROTEIN

> <s_pdb_PDB_format_version>
3.0

> <b_ppw_prepared>
1

> <s_ppw_prepared_with_version>
2020-1

> <b_ppw_created_disulfur>
1

> <s_ppw_het_states>
eJxdkEEOgyAURK9CXGMD6HzBqzTcwHTXlfHulQ/pCC7My9NkZv45+Wk37/sJYfXWuGxNwWCNb7jQrkQQhbgRIzH9EY7INAQi08A03Glz6wPGgXFgHBgnjBNfFhVuS/uRQcXSra6DO1H6ex6j3qEXQiEqNopNRaSIKtIgnilJBZuWb/V4nnfs/9AtWEbBYqhbSt9OcAu0OlgdWh1xEPLoUaunQYhrd5/d68bzsubzPY76zvn6ASXIhhI=

> <r_ff_Potential_Energy-OPLS3e>
-78794.9194613167

> <r_ff_RMS_Derivative-OPLS3e>
0.0378710977935337

> <b_ff_Minimization_Converged-OPLS3e>
1

> <r_i_Potential_Energy-OPLS_2005>
-7624.51475903269

> <r_i_RMS_Derivative-OPLS_2005>
0.0489963632263368

> <r_i_Max_Derivative-OPLS_2005>
1.26704801621217

> <r_i_Stretch_Energy-OPLS_2005>
7.11052450490243

> <r_i_Bend_Energy-OPLS_2005>
197.063566252192

> <r_i_LJ-14_Energy-OPLS_2005>
360.297021710382

> <r_i_El-14_Energy-OPLS_2005>
-284.602490681715

> <r_i_Van_der_Waals_Energy-OPLS_2005>
-609.7034905757

> <r_i_Electrostatic_Energy-OPLS_2005>
-7362.37548241817

> <r_i_Dihedral_Energy-OPLS_2005>
67.6955921754193

> <r_i_target_temperature>
298

> <s_user_Residue_ID>
_:1

$$$$
