:3gr2_ligand
                    3D
 Schrodinger Suite 2020-1.
 23 24  0  0  1  0            999 V2000
  -36.5460    5.7220    9.5850 O   0  0  0  0  0  0
  -37.1100    5.7140   10.7430 C   0  0  0  0  0  0
  -36.5610    6.3630   11.9450 C   0  0  0  0  0  0
  -35.2720    7.1290   12.0900 C   0  0  0  0  0  0
  -34.2690    6.1600   12.6930 C   0  0  0  0  0  0
  -37.5930    6.0490   12.9870 C   0  0  0  0  0  0
  -37.5570    6.4660   14.4360 C   0  0  0  0  0  0
  -38.5860    5.3240   12.4110 N   0  0  0  0  0  0
  -38.2610    5.1410   11.0580 N   0  0  0  0  0  0
  -39.0380    4.4600   10.2030 C   0  0  0  0  0  0
  -40.0810    3.7240   10.6250 N   0  5  0  0  0  0
  -40.6200    3.1840    9.4440 N   0  0  0  0  0  0
  -39.8430    3.6390    8.3590 N   0  0  0  0  0  0
  -38.8280    4.4610    8.8740 N   0  0  0  0  0  0
  -37.1104    5.2465    8.9904 H   0  0  0  0  0  0
  -35.3894    8.0028   12.7311 H   0  0  0  0  0  0
  -34.9097    7.4887   11.1264 H   0  0  0  0  0  0
  -34.5851    5.8417   13.6866 H   0  0  0  0  0  0
  -34.1939    5.2616   12.0810 H   0  0  0  0  0  0
  -33.2733    6.5410   12.7992 H   0  0  0  0  0  0
  -38.4216    6.0818   14.9782 H   0  0  0  0  0  0
  -36.6642    6.0850   14.9311 H   0  0  0  0  0  0
  -37.5571    7.5517   14.5306 H   0  0  0  0  0  0
  1  2  1  0  0  0
  1 15  1  0  0  0
  2  3  2  0  0  0
  2  9  1  0  0  0
  3  4  1  0  0  0
  3  6  1  0  0  0
  4  5  1  0  0  0
  4 16  1  0  0  0
  4 17  1  0  0  0
  5 18  1  0  0  0
  5 19  1  0  0  0
  5 20  1  0  0  0
  6  7  1  0  0  0
  6  8  2  0  0  0
  7 21  1  0  0  0
  7 22  1  0  0  0
  7 23  1  0  0  0
  8  9  1  0  0  0
  9 10  1  0  0  0
 10 11  1  0  0  0
 10 14  2  0  0  0
 11 12  1  0  0  0
 12 13  2  0  0  0
 13 14  1  0  0  0
M  CHG  1  11  -1
M  END
> <s_pdb_PDB_ID>


> <s_pdb_PDB_CLASSIFICATION>
3GR2_PROTEIN

> <s_pdb_PDB_format_version>
3.0

> <b_ppw_prepared>
1

> <s_ppw_prepared_with_version>
2020-1

> <b_ppw_created_disulfur>
1

> <s_ppw_het_states>
eJxdkUEOgzAMBL8ScYbITogJ/UqVH6DeekL8vXZMu0o5oNmF2LtwTjw9wlOvTCXPgdocDFdgAQpwA1bg/kMhIAMTULctfDPWCdZJX2d8h/NcjIg+ezAsbkJyD82DUWFINzYYtRv7n2FlEnoNaw29GKOj1xsNwYzeRdBFvAuiS/keYfsAFLmQhjonC6A/jKJw1imms+qFIrla+9NcKbkurndeXcv99jWH1/s4/N7a9QEyaWvR

> <r_ff_Potential_Energy-OPLS3e>
-83575.5905581383

> <r_ff_RMS_Derivative-OPLS3e>
0.0496181032039913

> <b_ff_Minimization_Converged-OPLS3e>
1

> <r_i_Potential_Energy-OPLS_2005>
-10375.545035718

> <r_i_RMS_Derivative-OPLS_2005>
0.048014605784476

> <r_i_Max_Derivative-OPLS_2005>
1.15197094439727

> <r_i_Stretch_Energy-OPLS_2005>
10.4561698076836

> <r_i_Bend_Energy-OPLS_2005>
262.782892230685

> <r_i_LJ-14_Energy-OPLS_2005>
493.132462700131

> <r_i_El-14_Energy-OPLS_2005>
-314.028955517024

> <r_i_Van_der_Waals_Energy-OPLS_2005>
-855.338800144753

> <r_i_Electrostatic_Energy-OPLS_2005>
-10128.6295914833

> <r_i_Dihedral_Energy-OPLS_2005>
156.080786688611

> <r_i_target_temperature>
298

> <s_user_Residue_ID>
_:1

$$$$
