:4ih7_ligand
                    3D
 Schrodinger Suite 2020-1.
 34 35  0  0  1  0            999 V2000
  -10.7330    6.0850    9.9460 O   0  0  0  0  0  0
  -11.2320    6.8760   10.7520 C   0  0  0  0  0  0
  -12.3290    6.4770   11.5130 N   0  0  0  0  0  0
  -12.9650    7.2550   12.4330 C   0  0  0  0  0  0
  -12.5530    8.5250   12.6690 C   0  0  0  0  0  0
  -11.4540    9.0310   11.9390 C   0  0  0  0  0  0
  -10.7940    8.2620   11.0070 C   0  0  0  0  0  0
   -9.6510    8.8130   10.2280 C   0  0  0  0  0  0
   -9.5770    8.6450    8.8450 C   0  0  0  0  0  0
   -8.4970    9.1470    8.1350 C   0  0  0  0  0  0
   -7.4850    9.8290    8.7960 C   0  0  0  0  0  0
   -8.6330    9.5110   10.8780 C   0  0  0  0  0  0
   -7.5400   10.0280   10.1750 C   0  0  0  0  0  0
   -6.4060   10.7630   10.9080 C   0  0  0  0  0  0
   -6.9030   11.4180   12.2040 C   0  0  0  0  0  0
   -5.8120   11.8860   10.0410 C   0  0  0  0  0  0
   -5.2880    9.7690   11.2810 C   0  0  0  0  0  0
  -12.6845    5.5360   11.3911 H   0  0  0  0  0  0
  -13.7840    6.7707   12.9429 H   0  0  0  0  0  0
  -13.0249    9.1254   13.4185 H   0  0  0  0  0  0
  -11.1335   10.0478   12.1031 H   0  0  0  0  0  0
  -10.3568    8.1224    8.3108 H   0  0  0  0  0  0
   -8.4399    9.0032    7.0660 H   0  0  0  0  0  0
   -6.6538   10.1806    8.2064 H   0  0  0  0  0  0
   -8.7023    9.6164   11.9491 H   0  0  0  0  0  0
   -6.1708   12.0994   12.6336 H   0  0  0  0  0  0
   -7.8031   11.9887   12.0193 H   0  0  0  0  0  0
   -7.1314   10.6858   12.9791 H   0  0  0  0  0  0
   -5.0626   12.4606   10.5833 H   0  0  0  0  0  0
   -5.3196   11.5224    9.1401 H   0  0  0  0  0  0
   -6.5917   12.5883    9.7524 H   0  0  0  0  0  0
   -4.4625   10.2031   11.8292 H   0  0  0  0  0  0
   -5.6797    8.9566   11.8945 H   0  0  0  0  0  0
   -4.8663    9.3125   10.3854 H   0  0  0  0  0  0
  1  2  2  0  0  0
  2  3  1  0  0  0
  2  7  1  0  0  0
  3  4  1  0  0  0
  3 18  1  0  0  0
  4  5  2  0  0  0
  4 19  1  0  0  0
  5  6  1  0  0  0
  5 20  1  0  0  0
  6  7  2  0  0  0
  6 21  1  0  0  0
  7  8  1  0  0  0
  8  9  2  0  0  0
  8 12  1  0  0  0
  9 10  1  0  0  0
  9 22  1  0  0  0
 10 11  2  0  0  0
 10 23  1  0  0  0
 11 13  1  0  0  0
 11 24  1  0  0  0
 12 13  2  0  0  0
 12 25  1  0  0  0
 13 14  1  0  0  0
 14 15  1  0  0  0
 14 16  1  0  0  0
 14 17  1  0  0  0
 15 26  1  0  0  0
 15 27  1  0  0  0
 15 28  1  0  0  0
 16 29  1  0  0  0
 16 30  1  0  0  0
 16 31  1  0  0  0
 17 32  1  0  0  0
 17 33  1  0  0  0
 17 34  1  0  0  0
M  END
> <s_pdb_PDB_ID>


> <s_pdb_PDB_CLASSIFICATION>
4IH7_PROTEIN

> <s_pdb_PDB_format_version>
3.0

> <b_ppw_prepared>
1

> <s_ppw_prepared_with_version>
2020-1

> <b_ppw_created_disulfur>
1

> <s_ppw_het_states>
eJxdkEEOgzAMBL8ScaYVMRtI+UrFD1BvPSH+XrBLR5RDNBqFrNdrY82Unvun0vdt6uY2HSiwgAM4ghV8/FAdmEEDSRNpIk2kiTSRJk87+Dt8zG1UiInyRRREcTEgBhcjb4wuKjfq+ajROMpmekdluwhxI7swhLno+cW7iEmlUxhrig1llhV7uor6L3wfu7l1932wdWvT670scc7z9gHD/HAJ

> <r_ff_Potential_Energy-OPLS3e>
-41194.2818980231

> <r_ff_RMS_Derivative-OPLS3e>
0.049170628339734

> <b_ff_Minimization_Converged-OPLS3e>
1

> <r_i_Potential_Energy-OPLS_2005>
-16827.9986361734

> <r_i_RMS_Derivative-OPLS_2005>
0.0492996163230606

> <r_i_Max_Derivative-OPLS_2005>
1.76228540453023

> <r_i_Stretch_Energy-OPLS_2005>
16.2890906693819

> <r_i_Bend_Energy-OPLS_2005>
392.414466548778

> <r_i_LJ-14_Energy-OPLS_2005>
740.398738816477

> <r_i_El-14_Energy-OPLS_2005>
-746.010371360341

> <r_i_Van_der_Waals_Energy-OPLS_2005>
-1402.81254418592

> <r_i_Electrostatic_Energy-OPLS_2005>
-16074.8837224022

> <r_i_Dihedral_Energy-OPLS_2005>
246.605705740359

> <r_i_target_temperature>
298

> <s_user_Residue_ID>
_:1

$$$$
