:1h22_ligand
                    3D
 Schrodinger Suite 2020-1.
 78 81  0  0  1  0            999 V2000
    4.6110   59.5350   71.3530 C   0  0  0  0  0  0
    3.7670   58.4830   71.6150 N   0  0  0  0  0  0
    2.7900   58.4320   72.5350 C   0  0  0  0  0  0
    2.5470   59.5350   73.3460 C   0  0  0  0  0  0
    3.4020   60.7310   73.1820 C   0  0  0  0  0  0
    4.4030   60.7540   72.2300 C   0  0  0  0  0  0
    5.4310   59.4610   70.4410 O   0  0  0  0  0  0
    2.0090   57.0990   72.6480 C   0  0  0  0  0  0
    1.4540   59.5250   74.4340 C   0  0  2  0  0  0
    0.7230   58.1450   74.5910 C   0  0  0  0  0  0
    0.6170   57.3300   73.2570 C   0  0  0  0  0  0
    0.4270   60.6230   74.0930 N   0  3  0  0  0  0
   -0.3570   60.4920   72.7930 C   0  0  0  0  0  0
    0.9910   68.3680   60.8990 C   0  0  0  0  0  0
    2.3790   68.3900   60.9720 N   0  0  0  0  0  0
    3.1540   68.3130   62.0900 C   0  0  0  0  0  0
    2.5630   68.1880   63.3530 C   0  0  0  0  0  0
    1.0760   68.1260   63.4100 C   0  0  0  0  0  0
    0.2890   68.2110   62.2470 C   0  0  0  0  0  0
    0.4230   68.5620   59.8060 O   0  0  0  0  0  0
    4.6770   68.3630   61.8600 C   0  0  0  0  0  0
    3.4630   68.1010   64.6320 C   0  0  2  0  0  0
    4.9830   67.9090   64.3050 C   0  0  0  0  0  0
    5.4440   68.7620   63.1480 C   0  0  0  0  0  0
    3.1490   66.9030   65.5150 N   0  3  0  0  0  0
    4.1450   66.5400   66.6350 C   0  0  0  0  0  0
   -0.8540   61.8630   72.3690 C   0  0  0  0  0  0
    0.2800   62.8330   72.0220 C   0  0  0  0  0  0
    1.0520   62.4120   70.8010 C   0  0  0  0  0  0
    1.7930   63.5830   70.1510 C   0  0  0  0  0  0
    3.2970   63.2790   70.1170 C   0  0  0  0  0  0
    4.1290   63.8550   68.9560 C   0  0  0  0  0  0
    4.2940   65.3940   68.9250 C   0  0  0  0  0  0
    3.3800   66.0170   67.8370 C   0  0  0  0  0  0
    3.8801   57.6446   71.0511 H   0  0  0  0  0  0
    3.2464   61.5881   73.8171 H   0  0  0  0  0  0
    5.0364   61.6214   72.1148 H   0  0  0  0  0  0
    2.5814   56.4128   73.2730 H   0  0  0  0  0  0
    1.8958   56.6320   71.6712 H   0  0  0  0  0  0
    1.9126   59.7974   75.3853 H   0  0  0  0  0  0
   -0.2634   58.2786   75.0365 H   0  0  0  0  0  0
    1.2869   57.5405   75.3027 H   0  0  0  0  0  0
    0.1310   56.3714   73.4411 H   0  0  0  0  0  0
   -0.0152   57.8585   72.5558 H   0  0  0  0  0  0
    0.9419   61.4900   74.0403 H   0  0  0  0  0  0
   -0.2325   60.6988   74.8542 H   0  0  0  0  0  0
   -1.2013   59.8219   72.9560 H   0  0  0  0  0  0
    0.2510   60.0557   72.0017 H   0  0  0  0  0  0
    2.8761   68.5043   60.1006 H   0  0  0  0  0  0
    0.5853   68.0182   64.3660 H   0  0  0  0  0  0
   -0.7889   68.1682   62.3009 H   0  0  0  0  0  0
    4.9119   69.0550   61.0502 H   0  0  0  0  0  0
    5.0012   67.3740   61.5339 H   0  0  0  0  0  0
    3.3272   69.0177   65.2071 H   0  0  0  0  0  0
    5.1962   66.8680   64.0539 H   0  0  0  0  0  0
    5.6100   68.1605   65.1579 H   0  0  0  0  0  0
    5.2729   69.8154   63.3740 H   0  0  0  0  0  0
    6.5171   68.6450   62.9930 H   0  0  0  0  0  0
    3.0472   66.0902   64.9238 H   0  0  0  0  0  0
    2.2540   67.0844   65.9462 H   0  0  0  0  0  0
    4.6969   67.4174   66.9655 H   0  0  0  0  0  0
    4.8621   65.8052   66.2664 H   0  0  0  0  0  0
   -1.4462   62.2788   73.1819 H   0  0  0  0  0  0
   -1.5324   61.7708   71.5214 H   0  0  0  0  0  0
    0.9564   62.9827   72.8639 H   0  0  0  0  0  0
   -0.1841   63.8031   71.8386 H   0  0  0  0  0  0
    0.3598   62.0195   70.0561 H   0  0  0  0  0  0
    1.7034   61.5770   71.0538 H   0  0  0  0  0  0
    1.6484   64.5082   70.7105 H   0  0  0  0  0  0
    1.4319   63.8094   69.1779 H   0  0  0  0  0  0
    3.4463   62.2031   70.0308 H   0  0  0  0  0  0
    3.7420   63.5597   71.0701 H   0  0  0  0  0  0
    3.7884   63.4588   67.9987 H   0  0  0  0  0  0
    5.1300   63.4566   69.0967 H   0  0  0  0  0  0
    5.3363   65.6451   68.7263 H   0  0  0  0  0  0
    4.0673   65.8157   69.9054 H   0  0  0  0  0  0
    2.6206   65.3036   67.5175 H   0  0  0  0  0  0
    2.8254   66.8453   68.2801 H   0  0  0  0  0  0
  1  7  2  0  0  0
  1  6  1  0  0  0
  1  2  1  0  0  0
  2  3  1  0  0  0
  2 35  1  0  0  0
  3  8  1  0  0  0
  3  4  2  0  0  0
  4  9  1  0  0  0
  4  5  1  0  0  0
  5  6  2  0  0  0
  5 36  1  0  0  0
  6 37  1  0  0  0
  8 11  1  0  0  0
  8 38  1  0  0  0
  8 39  1  0  0  0
  9 12  1  0  0  0
  9 10  1  0  0  0
  9 40  1  0  0  0
 10 11  1  0  0  0
 10 41  1  0  0  0
 10 42  1  0  0  0
 11 43  1  0  0  0
 11 44  1  0  0  0
 12 13  1  0  0  0
 12 45  1  0  0  0
 12 46  1  0  0  0
 13 27  1  0  0  0
 13 47  1  0  0  0
 13 48  1  0  0  0
 14 15  1  0  0  0
 14 20  2  0  0  0
 14 19  1  0  0  0
 15 16  1  0  0  0
 15 49  1  0  0  0
 16 17  2  0  0  0
 16 21  1  0  0  0
 17 22  1  0  0  0
 17 18  1  0  0  0
 18 19  2  0  0  0
 18 50  1  0  0  0
 19 51  1  0  0  0
 21 24  1  0  0  0
 21 52  1  0  0  0
 21 53  1  0  0  0
 22 25  1  0  0  0
 22 23  1  0  0  0
 22 54  1  0  0  0
 23 24  1  0  0  0
 23 55  1  0  0  0
 23 56  1  0  0  0
 24 57  1  0  0  0
 24 58  1  0  0  0
 25 26  1  0  0  0
 25 59  1  0  0  0
 25 60  1  0  0  0
 26 34  1  0  0  0
 26 61  1  0  0  0
 26 62  1  0  0  0
 27 28  1  0  0  0
 27 63  1  0  0  0
 27 64  1  0  0  0
 28 29  1  0  0  0
 28 65  1  0  0  0
 28 66  1  0  0  0
 29 30  1  0  0  0
 29 67  1  0  0  0
 29 68  1  0  0  0
 30 31  1  0  0  0
 30 69  1  0  0  0
 30 70  1  0  0  0
 31 32  1  0  0  0
 31 71  1  0  0  0
 31 72  1  0  0  0
 32 33  1  0  0  0
 32 73  1  0  0  0
 32 74  1  0  0  0
 33 34  1  0  0  0
 33 75  1  0  0  0
 33 76  1  0  0  0
 34 77  1  0  0  0
 34 78  1  0  0  0
M  CHG  2  12   1  25   1
M  END
> <s_pdb_PDB_ID>


> <s_pdb_PDB_CLASSIFICATION>
1H22_PROTEIN

> <s_pdb_PDB_format_version>
3.0

> <b_ppw_prepared>
1

> <s_ppw_prepared_with_version>
2020-1

> <b_ppw_created_disulfur>
1

> <s_ppw_het_states>
eJxdk0uOg0AMRK+CWDMjuvnYzlVG3CDKLqsod59um+YBWUTVJcgrlzufPvWP7q985mmdhm7chq7KGbkgV6QgFWmHlBGZkBkJTQot7RKaQBNoAk2gKTSFptAUmjKbQlNoKkcchabQDJpBM2gGzaAZNHNa1Xvv0V3eawxDjxi7QU1VxmqasVSjln4x6sbaj67+ROIJN1aGrTKwmR3Gotp2khvz3cgY+f6KJ5XlsuFosxkRTG5GXV6+GEQXTyoUVGVciHw29JTD3JjvBo3p2CiZOxMXoz3hs5yvRxgMp8v9FU+qerlRsf9meA4jh3kOY1rzko2SzUs2hjNPagxnHswIZgvY4vyMv4Xy6VXHqfz/41hOSfbTd+he7+czvrft+w8Plt4K

> <r_ff_Potential_Energy-OPLS3e>
-73366.6798706911

> <r_ff_RMS_Derivative-OPLS3e>
0.0448181496395727

> <b_ff_Minimization_Converged-OPLS3e>
1

> <r_i_Potential_Energy-OPLS_2005>
-16432.8955404393

> <r_i_RMS_Derivative-OPLS_2005>
0.0419696050052909

> <r_i_Max_Derivative-OPLS_2005>
1.64190576426227

> <r_i_Stretch_Energy-OPLS_2005>
22.7612704635284

> <r_i_Bend_Energy-OPLS_2005>
445.198417794741

> <r_i_LJ-14_Energy-OPLS_2005>
724.962289684568

> <r_i_El-14_Energy-OPLS_2005>
-565.53790276085

> <r_i_Van_der_Waals_Energy-OPLS_2005>
-1089.32706999733

> <r_i_Electrostatic_Energy-OPLS_2005>
-16240.4264841556

> <r_i_Dihedral_Energy-OPLS_2005>
269.473938531665

> <r_i_target_temperature>
298

> <s_user_Residue_ID>
_:1

$$$$
