:1w4o_ligand
                    3D
 Schrodinger Suite 2020-1.
 32 33  0  0  1  0            999 V2000
   36.5030   -2.0840   11.7110 N   0  0  0  0  0  0
   35.2100   -2.1570   11.1150 C   0  0  0  0  0  0
   34.7380   -1.2530   10.5240 O   0  0  0  0  0  0
   34.5840   -3.3970   11.3050 N   0  0  0  0  0  0
   35.0790   -4.5240   11.9990 C   0  0  0  0  0  0
   34.3810   -5.5120   12.0540 O   0  0  0  0  0  0
   36.4010   -4.3530   12.5790 C   0  0  0  0  0  0
   37.0560   -3.1880   12.4290 C   0  0  0  0  0  0
   40.7770    0.3360   13.9640 O   0  0  0  0  0  0
   40.2230    0.5960   12.5170 C   0  0  0  0  0  0
   38.9370    0.3200   12.2850 C   0  0  1  0  0  0
   38.7340   -0.9590   11.6930 O   0  0  0  0  0  0
   38.0330    1.1710   12.8790 C   0  0  1  0  0  0
   37.3130    2.4500   12.4140 O   0  0  0  0  0  0
   36.8820   -0.1270   13.0650 C   0  0  2  0  0  0
   37.0630   -0.8150   14.5460 O   0  0  0  0  0  0
   37.1810   -0.8620   11.5770 C   0  0  2  0  0  0
   35.1240    3.1800   13.3130 O   0  0  0  0  0  0
   36.6740    3.5710   13.1930 P   0  0  0  0  0  0
   36.9060    4.8640   12.4680 O   0  5  0  0  0  0
   37.2690    3.6140   14.5750 O   0  5  0  0  0  0
   33.6807   -3.5158   10.8560 H   0  0  0  0  0  0
   36.8537   -5.1641   13.1300 H   0  0  0  0  0  0
   38.0343   -3.0905   12.8771 H   0  0  0  0  0  0
   40.6147   -0.5680   14.1890 H   0  0  0  0  0  0
   40.8604    0.0411   11.8254 H   0  0  0  0  0  0
   40.4373    1.6493   12.3137 H   0  0  0  0  0  0
   38.8750    0.8155   11.3149 H   0  0  0  0  0  0
   38.3774    1.4122   13.8861 H   0  0  0  0  0  0
   35.8760    0.2894   13.0256 H   0  0  0  0  0  0
   36.2330   -1.2040   14.7845 H   0  0  0  0  0  0
   36.8837   -0.3026   10.6862 H   0  0  0  0  0  0
  1  2  1  0  0  0
  1  8  1  0  0  0
  1 17  1  0  0  0
  2  3  2  0  0  0
  2  4  1  0  0  0
  4  5  1  0  0  0
  4 22  1  0  0  0
  5  6  2  0  0  0
  5  7  1  0  0  0
  7  8  2  0  0  0
  7 23  1  0  0  0
  8 24  1  0  0  0
  9 10  1  0  0  0
  9 25  1  0  0  0
 10 11  1  0  0  0
 10 26  1  0  0  0
 10 27  1  0  0  0
 11 12  1  0  0  0
 11 13  1  0  0  0
 11 28  1  0  0  0
 12 17  1  0  0  0
 13 14  1  0  0  0
 13 15  1  0  0  0
 13 29  1  0  0  0
 14 19  1  0  0  0
 15 16  1  0  0  0
 15 17  1  0  0  0
 15 30  1  0  0  0
 16 31  1  0  0  0
 17 32  1  0  0  0
 18 19  2  0  0  0
 19 20  1  0  0  0
 19 21  1  0  0  0
M  CHG  2  20  -1  21  -1
M  END
> <s_pdb_PDB_ID>


> <s_pdb_PDB_CLASSIFICATION>
1W4O_PROTEIN

> <s_pdb_PDB_format_version>
3.0

> <b_ppw_prepared>
1

> <s_ppw_prepared_with_version>
2020-1

> <b_ppw_created_disulfur>
1

> <s_ppw_het_states>
eJxdkkEOgyAQRa9CXFvDIIy2V2m8gemuK+PdCzOmr9SFeXwif3jxGGR4hGd9JOZlDHEbQ8MVvH+xRFDABM5gBguoIG2FtkKb0qa0KW1Km9KmtGltu8nFi3FbXFf1W17bHrShu6BVCErcRvoNmhNBj5sRJLmf1AUcami1CVeuSTDmsgRvrqwP7gTr3+i2Zz77gEltz9QJxl12H3BoU+6fJMS7c+kCG70mcZIca3QMSXSuf51MKcV8juH13nd/b9v5AVCciLM=

> <r_ff_Potential_Energy-OPLS3e>
-29342.2808786231

> <r_ff_RMS_Derivative-OPLS3e>
0.0444315778934777

> <b_ff_Minimization_Converged-OPLS3e>
1

> <r_i_Potential_Energy-OPLS_2005>
-3271.1601022054

> <r_i_RMS_Derivative-OPLS_2005>
0.0499192584558296

> <r_i_Max_Derivative-OPLS_2005>
0.686460380337077

> <r_i_Stretch_Energy-OPLS_2005>
4.41079173047107

> <r_i_Bend_Energy-OPLS_2005>
89.4659667433802

> <r_i_LJ-14_Energy-OPLS_2005>
177.529456043942

> <r_i_El-14_Energy-OPLS_2005>
-101.939452995248

> <r_i_Van_der_Waals_Energy-OPLS_2005>
-175.288396449905

> <r_i_Electrostatic_Energy-OPLS_2005>
-3280.58576326634

> <r_i_Dihedral_Energy-OPLS_2005>
15.2472959883027

> <r_i_target_temperature>
298

> <s_user_Residue_ID>
_:1

$$$$
