:3jya_ligand
                    3D
 Schrodinger Suite 2020-1.
 20 22  0  0  1  0            999 V2000
    9.0290   81.3600   -1.2340 C   0  0  0  0  0  0
    9.9220   81.3140   -0.2000 N   0  0  0  0  0  0
    9.2720   81.1030   -2.4030 O   0  0  0  0  0  0
    6.4060   81.9310   -1.7400 S   0  0  0  0  0  0
    3.3440   82.6020   -2.0740 Cl  0  0  0  0  0  0
    9.6000   81.6150    1.1010 C   0  0  0  0  0  0
    8.4500   81.9850    1.5720 N   0  0  0  0  0  0
    6.3490   82.8480    3.4260 Cl  0  0  0  0  0  0
    7.4770   82.0590    0.5700 C   0  0  0  0  0  0
    7.7730   81.7580   -0.7340 C   0  0  0  0  0  0
    5.4250   82.3980   -0.4130 C   0  0  0  0  0  0
    4.0920   82.7020   -0.5170 C   0  0  0  0  0  0
    3.4340   83.0620    0.6360 C   0  0  0  0  0  0
    4.1070   83.1130    1.8410 C   0  0  0  0  0  0
    5.4450   82.8000    1.9380 C   0  0  0  0  0  0
    6.1260   82.4310    0.7890 C   0  0  0  0  0  0
   10.8675   81.0294   -0.4052 H   0  0  0  0  0  0
   10.4505   81.4689    1.7630 H   0  0  0  0  0  0
    2.3833   83.3097    0.5984 H   0  0  0  0  0  0
    3.5690   83.3997    2.7329 H   0  0  0  0  0  0
  1  2  1  0  0  0
  1  3  2  0  0  0
  1 10  1  0  0  0
  2  6  1  0  0  0
  2 17  1  0  0  0
  4 10  1  0  0  0
  4 11  1  0  0  0
  5 12  1  0  0  0
  6  7  2  0  0  0
  6 18  1  0  0  0
  7  9  1  0  0  0
  8 15  1  0  0  0
  9 10  2  0  0  0
  9 16  1  0  0  0
 11 12  2  0  0  0
 11 16  1  0  0  0
 12 13  1  0  0  0
 13 14  2  0  0  0
 13 19  1  0  0  0
 14 15  1  0  0  0
 14 20  1  0  0  0
 15 16  2  0  0  0
M  END
> <s_pdb_PDB_ID>


> <s_pdb_PDB_CLASSIFICATION>
3JYA_PROTEIN

> <s_pdb_PDB_format_version>
3.0

> <b_ppw_prepared>
1

> <s_ppw_prepared_with_version>
2020-1

> <b_ppw_created_disulfur>
1

> <s_ppw_het_states>
eJxVkcEOhCAMRH+FcHYNrUXEX9nwB2ZvezL++7agO+CBjJPaN4ynJ7+7tz7MC00ulMmZZMgFUiAj5AqZIDfI/JcSIEET0AQ0AU1Ak0ozfSduYelGNUOXcG8YlnCzlplwqXGiGQQjVqOjrHVHAiVVI2Niq59EGPmh8GAgh9BD4cHoJmp0a4hQVuuJUdmAlfjsYOvsFWZNcHpLrL89zGI7vZ5RX5eZY8rX5D7f42hnKdcPAlRxzg==

> <r_ff_Potential_Energy-OPLS3e>
7012.15117317107

> <r_ff_RMS_Derivative-OPLS3e>
0.0398200439712263

> <b_ff_Minimization_Converged-OPLS3e>
1

> <r_i_Potential_Energy-OPLS_2005>
-7519.63995997344

> <r_i_RMS_Derivative-OPLS_2005>
0.0432260805038288

> <r_i_Max_Derivative-OPLS_2005>
0.725497385677296

> <r_i_Stretch_Energy-OPLS_2005>
8.4615596555931

> <r_i_Bend_Energy-OPLS_2005>
208.722194465289

> <r_i_LJ-14_Energy-OPLS_2005>
373.608659246581

> <r_i_El-14_Energy-OPLS_2005>
-428.398287437673

> <r_i_Van_der_Waals_Energy-OPLS_2005>
-664.667302037829

> <r_i_Electrostatic_Energy-OPLS_2005>
-7144.13991178733

> <r_i_Dihedral_Energy-OPLS_2005>
126.773127921925

> <r_i_target_temperature>
298

> <s_user_Residue_ID>
_:1

$$$$
