:2fxs_ligand
                    3D
 Schrodinger Suite 2020-1.
 45 46  0  0  1  0            999 V2000
   19.4390   35.7150    7.9830 C   0  0  0  0  0  0
   19.5700   34.8980    6.8150 O   0  0  0  0  0  0
   18.3630   34.6030    6.2580 C   0  0  0  0  0  0
   17.3240   35.0640    6.7280 O   0  0  0  0  0  0
   18.3240   33.7300    5.0000 C   0  0  0  0  0  0
   17.3560   32.7330    4.9060 C   0  0  0  0  0  0
   16.4430   32.5690    5.9000 O   0  0  0  0  0  0
   17.3310   31.8790    3.8090 C   0  0  0  0  0  0
   18.2870   32.0340    2.8100 C   0  0  0  0  0  0
   18.2990   31.1870    1.7460 O   0  5  0  0  0  0
   19.2470   33.0350    2.9110 C   0  0  0  0  0  0
   20.3870   33.2070    1.6210 Cl  0  0  0  0  0  0
   19.2860   33.9000    4.0050 C   0  0  0  0  0  0
   20.3420   35.0080    4.0990 C   0  0  0  0  0  0
   21.6830   34.4570    4.5910 C   0  0  0  0  0  0
   22.7690   35.5340    4.6240 C   0  0  0  0  0  0
   23.2910   35.9330    3.5840 O   0  0  0  0  0  0
   23.0650   35.9930    5.8390 N   0  0  0  0  0  0
   23.9910   36.9160    6.0970 C   0  0  0  0  0  0
   24.8080   37.4450    5.1010 C   0  0  0  0  0  0
   25.8140   38.3530    5.4210 C   0  0  0  0  0  0
   26.5400   38.8020    4.5330 O   0  0  0  0  0  0
   26.0100   38.7420    6.7430 C   0  0  0  0  0  0
   27.0150   39.5990    7.0650 O   0  0  0  0  0  0
   26.5750   40.9610    7.0320 C   0  0  0  0  0  0
   25.1900   38.2190    7.7410 C   0  0  0  0  0  0
   24.1860   37.3120    7.4180 C   0  0  0  0  0  0
   23.4610   36.8620    8.3050 O   0  0  0  0  0  0
   20.4298   35.9369    8.3791 H   0  0  0  0  0  0
   18.9505   36.6665    7.7686 H   0  0  0  0  0  0
   18.8840   35.1919    8.7605 H   0  0  0  0  0  0
   15.8387   31.8421    5.7578 H   0  0  0  0  0  0
   16.5890   31.0962    3.7381 H   0  0  0  0  0  0
   20.0266   35.8725    4.6756 H   0  0  0  0  0  0
   20.4752   35.4307    3.1028 H   0  0  0  0  0  0
   22.0266   33.6625    3.9282 H   0  0  0  0  0  0
   21.5831   33.9943    5.5729 H   0  0  0  0  0  0
   22.5609   35.6217    6.6309 H   0  0  0  0  0  0
   24.8555   37.2530    4.0496 H   0  0  0  0  0  0
   27.1944   39.3846    4.8909 H   0  0  0  0  0  0
   27.3522   41.6144    7.4278 H   0  0  0  0  0  0
   26.4003   41.2315    5.9961 H   0  0  0  0  0  0
   25.6635   41.1212    7.6104 H   0  0  0  0  0  0
   25.3460   38.5205    8.7667 H   0  0  0  0  0  0
   23.4323   37.4526    9.0435 H   0  0  0  0  0  0
  1  2  1  0  0  0
  1 29  1  0  0  0
  1 30  1  0  0  0
  1 31  1  0  0  0
  2  3  1  0  0  0
  3  4  2  0  0  0
  3  5  1  0  0  0
  5  6  2  0  0  0
  5 13  1  0  0  0
  6  7  1  0  0  0
  6  8  1  0  0  0
  7 32  1  0  0  0
  8  9  2  0  0  0
  8 33  1  0  0  0
  9 10  1  0  0  0
  9 11  1  0  0  0
 11 12  1  0  0  0
 11 13  2  0  0  0
 13 14  1  0  0  0
 14 15  1  0  0  0
 14 34  1  0  0  0
 14 35  1  0  0  0
 15 16  1  0  0  0
 15 36  1  0  0  0
 15 37  1  0  0  0
 16 17  2  0  0  0
 16 18  1  0  0  0
 18 19  1  0  0  0
 18 38  1  0  0  0
 19 20  2  0  0  0
 19 27  1  0  0  0
 20 21  1  0  0  0
 20 39  1  0  0  0
 21 22  1  0  0  0
 21 23  2  0  0  0
 22 40  1  0  0  0
 23 24  1  0  0  0
 23 26  1  0  0  0
 24 25  1  0  0  0
 25 41  1  0  0  0
 25 42  1  0  0  0
 25 43  1  0  0  0
 26 27  2  0  0  0
 26 44  1  0  0  0
 27 28  1  0  0  0
 28 45  1  0  0  0
M  CHG  1  10  -1
M  END
> <s_pdb_PDB_ID>


> <s_pdb_PDB_CLASSIFICATION>
2FXS_PROTEIN

> <s_pdb_PDB_format_version>
3.0

> <b_ppw_prepared>
1

> <s_ppw_prepared_with_version>
2020-1

> <b_ppw_created_disulfur>
1

> <s_ppw_het_states>
eJxdk0EOgjAQRa/SsEbTKZ0BvIrhBsadK+PdpTOEZ2Vhfn5J3zgvvAcZbum+P7JO85jyNqYWF+J6xpqJQizEiViJSrQxXeTI4Cq4Ck7BKTgFp+AUnIJTI0JTaArNoBk0g2bQzGktH2uLjQnLi70JK4ztla6Q8w2PvsnSFdzRzmLBfVEpqhfKHeqF8UYUM4WPXpf/YuUOn7SZEKSED0FNWBEEhZvSFUzq0T0JysJW+S2Mf9vOQqLgM1T2BaOrj24/o0fBpH7mtgXbgS04D93SdOfrpM3ue6iy5P3DueRr/ozp+Xo84nfbPl8OLLKu

> <r_ff_Potential_Energy-OPLS3e>
-143694.979248579

> <r_ff_RMS_Derivative-OPLS3e>
0.0456627136882417

> <b_ff_Minimization_Converged-OPLS3e>
1

> <r_i_Potential_Energy-OPLS_2005>
-6970.56894344682

> <r_i_RMS_Derivative-OPLS_2005>
0.0499500719992227

> <r_i_Max_Derivative-OPLS_2005>
0.928977623042548

> <r_i_Stretch_Energy-OPLS_2005>
7.52817089197027

> <r_i_Bend_Energy-OPLS_2005>
133.791344810404

> <r_i_LJ-14_Energy-OPLS_2005>
313.268413789839

> <r_i_El-14_Energy-OPLS_2005>
-230.507546666908

> <r_i_Van_der_Waals_Energy-OPLS_2005>
-444.468096857525

> <r_i_Electrostatic_Energy-OPLS_2005>
-6797.29199691267

> <r_i_Dihedral_Energy-OPLS_2005>
47.110767498067

> <r_i_target_temperature>
298

> <s_user_Residue_ID>
_:1

$$$$
