:2zcq_ligand
                    3D
 Schrodinger Suite 2020-1.
 42 43  0  0  1  0            999 V2000
   15.0650   55.4960   39.8510 C   0  0  0  0  0  0
   14.8050   56.4450   40.8430 C   0  0  0  0  0  0
   13.9360   56.1490   41.8870 C   0  0  0  0  0  0
   13.3240   54.9060   41.9490 C   0  0  0  0  0  0
   13.5840   53.9560   40.9620 C   0  0  0  0  0  0
   14.4480   54.2580   39.9150 C   0  0  0  0  0  0
   14.5500   53.3870   38.8700 O   0  0  0  0  0  0
   15.6130   52.5420   38.8920 C   0  0  0  0  0  0
   15.9990   51.9690   37.6820 C   0  0  0  0  0  0
   16.2330   52.1440   40.0700 C   0  0  0  0  0  0
   17.2260   51.1730   40.0300 C   0  0  0  0  0  0
   17.6020   50.5940   38.8200 C   0  0  0  0  0  0
   16.9830   50.9950   37.6410 C   0  0  0  0  0  0
   17.3310   50.3430   36.2980 C   0  0  0  0  0  0
   18.4450   51.1010   35.5720 C   0  0  0  0  0  0
   19.7000   51.1160   36.4440 C   0  0  0  0  0  0
   20.9210   51.6820   35.7130 C   0  0  2  0  0  0
   21.3180   50.6870   34.2190 P   0  0  0  0  0  0
   22.8210   51.0640   33.7840 O   0  0  0  0  0  0
   21.3420   49.1510   34.7060 O   0  0  0  0  0  0
   20.3500   50.9090   33.1190 O   0  5  0  0  0  0
   22.3510   51.7060   36.8530 S   0  0  0  0  0  0
   23.5260   52.0920   36.1330 O   0  0  0  0  0  0
   22.5580   50.3410   37.4350 O   0  0  0  0  0  0
   22.0820   52.6710   37.9740 O   0  5  0  0  0  0
   15.7112   55.7412   39.0209 H   0  0  0  0  0  0
   15.2655   57.4201   40.7886 H   0  0  0  0  0  0
   13.7286   56.8912   42.6443 H   0  0  0  0  0  0
   12.6244   54.6861   42.7411 H   0  0  0  0  0  0
   13.0765   53.0028   40.9817 H   0  0  0  0  0  0
   15.4991   52.2638   36.7706 H   0  0  0  0  0  0
   15.9222   52.5240   41.0263 H   0  0  0  0  0  0
   17.6889   50.8466   40.9488 H   0  0  0  0  0  0
   18.3573   49.8225   38.8069 H   0  0  0  0  0  0
   16.4289   50.3073   35.6884 H   0  0  0  0  0  0
   17.6157   49.3100   36.4470 H   0  0  0  0  0  0
   18.1386   52.1086   35.2878 H   0  0  0  0  0  0
   18.6213   50.5278   34.6730 H   0  0  0  0  0  0
   19.8918   50.1738   36.9356 H   0  0  0  0  0  0
   19.5171   51.7988   37.2735 H   0  0  0  0  0  0
   20.7279   52.7106   35.4087 H   0  0  0  0  0  0
   20.6581   49.2041   35.3182 H   0  0  0  0  0  0
  1  2  2  0  0  0
  1  6  1  0  0  0
  1 26  1  0  0  0
  2  3  1  0  0  0
  2 27  1  0  0  0
  3  4  2  0  0  0
  3 28  1  0  0  0
  4  5  1  0  0  0
  4 29  1  0  0  0
  5  6  2  0  0  0
  5 30  1  0  0  0
  6  7  1  0  0  0
  7  8  1  0  0  0
  8  9  2  0  0  0
  8 10  1  0  0  0
  9 13  1  0  0  0
  9 31  1  0  0  0
 10 11  2  0  0  0
 10 32  1  0  0  0
 11 12  1  0  0  0
 11 33  1  0  0  0
 12 13  2  0  0  0
 12 34  1  0  0  0
 13 14  1  0  0  0
 14 15  1  0  0  0
 14 35  1  0  0  0
 14 36  1  0  0  0
 15 16  1  0  0  0
 15 37  1  0  0  0
 15 38  1  0  0  0
 16 17  1  0  0  0
 16 39  1  0  0  0
 16 40  1  0  0  0
 17 18  1  0  0  0
 17 22  1  0  0  0
 17 41  1  0  0  0
 18 19  2  0  0  0
 18 20  1  0  0  0
 18 21  1  0  0  0
 20 42  1  0  0  0
 22 23  2  0  0  0
 22 24  2  0  0  0
 22 25  1  0  0  0
M  CHG  2  21  -1  25  -1
M  END
> <s_pdb_PDB_ID>


> <s_pdb_PDB_CLASSIFICATION>
2ZCQ_PROTEIN

> <s_pdb_PDB_format_version>
3.0

> <b_ppw_prepared>
1

> <s_ppw_prepared_with_version>
2020-1

> <b_ppw_created_disulfur>
1

> <s_ppw_het_states>
eJxdkUEOgzAMBL+CONMKh9il/UrFD1BvPSH+XpKNOgIOaFkCa89u/dS/uvdxJc8+dOMydEUG8oGckc+/9BFpyISckBlJmpPmpDlpTlqQFqQFaUFakBZH2s2aJi6IC+LiWQ+Xh4ZFRFLbvRplbYOWQBnMhCtBTtAMfvpHgqIAGiyF0SAqmOlkZE5M1WCO8k6kE9DF20CvTxIFiL1RgxowylAPRiVqwyhGnZwNYqOOHuzSjHw94Rh10mDSZsxXo056OOPdray37UP3+a6r7suy/wDQtp65

> <r_ff_Potential_Energy-OPLS3e>
-29497.9811552772

> <r_ff_RMS_Derivative-OPLS3e>
0.0372541914177277

> <b_ff_Minimization_Converged-OPLS3e>
1

> <r_i_Potential_Energy-OPLS_2005>
-8076.45985447562

> <r_i_RMS_Derivative-OPLS_2005>
0.0441364828432614

> <r_i_Max_Derivative-OPLS_2005>
1.28148741752227

> <r_i_Stretch_Energy-OPLS_2005>
20.863174437135

> <r_i_Bend_Energy-OPLS_2005>
306.908174551407

> <r_i_LJ-14_Energy-OPLS_2005>
412.891937717961

> <r_i_El-14_Energy-OPLS_2005>
-380.810108977049

> <r_i_Van_der_Waals_Energy-OPLS_2005>
-399.89749461826

> <r_i_Electrostatic_Energy-OPLS_2005>
-8218.17030341394

> <r_i_Dihedral_Energy-OPLS_2005>
181.754765827124

> <r_i_target_temperature>
298

> <s_user_Residue_ID>
_:1

$$$$
