:3oe4_ligand
                    3D
 Schrodinger Suite 2020-1.
 51 54  0  0  1  0            999 V2000
   20.3680  -30.8330   13.2990 C   0  0  1  0  0  0
   19.0550  -31.5850   13.4000 C   0  0  2  0  0  0
   17.9480  -30.5060   13.4060 C   0  0  1  0  0  0
   18.5380  -29.4770   12.5630 O   0  0  0  0  0  0
   19.9190  -29.6990   12.2860 C   0  0  2  0  0  0
   20.1120  -30.2180   10.9170 C   0  0  0  0  0  0
   16.7500  -30.9170   12.7460 N   0  0  0  0  0  0
   20.6790  -30.2280   14.5520 O   0  0  0  0  0  0
   18.8960  -32.3840   14.5710 O   0  0  0  0  0  0
   20.6060  -29.4750    9.9620 C   0  0  0  0  0  0
   16.5960  -31.4860   11.4470 C   0  0  0  0  0  0
   15.3130  -31.5890   11.1080 N   0  0  0  0  0  0
   20.8300  -29.9760    8.5590 C   0  0  0  0  0  0
   21.8230  -29.2160    7.8310 N   0  0  0  0  0  0
   22.6290  -29.6950    6.8770 C   0  0  0  0  0  0
   23.6650  -28.8720    6.2440 C   0  0  0  0  0  0
   23.7050  -27.4560    6.4640 C   0  0  0  0  0  0
   24.7600  -26.7690    5.8440 C   0  0  0  0  0  0
   25.7270  -27.3360    5.0710 C   0  0  0  0  0  0
   25.6740  -28.7630    4.9300 C   0  0  0  0  0  0
   24.6470  -29.4920    5.5110 C   0  0  0  0  0  0
   26.6590  -29.3870    4.1400 N   0  3  0  0  0  0
   22.7810  -26.7590    7.1430 O   0  0  0  0  0  0
   24.8110  -25.4100    6.0640 O   0  0  0  0  0  0
   22.5020  -30.8900    6.4760 O   0  0  0  0  0  0
   27.4260  -28.7540    3.4750 O   0  5  0  0  0  0
   26.6000  -30.6250    4.1570 O   0  0  0  0  0  0
   15.4830  -30.7070   13.2050 C   0  0  0  0  0  0
   14.5670  -31.1260   12.1690 C   0  0  0  0  0  0
   13.2220  -30.9850   12.3980 C   0  0  0  0  0  0
   12.7710  -30.4450   13.5460 N   0  0  0  0  0  0
   13.6800  -30.0480   14.4920 C   0  0  0  0  0  0
   15.0100  -30.1620   14.3570 N   0  0  0  0  0  0
   21.2055  -31.4408   12.9539 H   0  0  0  0  0  0
   18.9408  -32.2342   12.5326 H   0  0  0  0  0  0
   17.6613  -30.1170   14.3785 H   0  0  0  0  0  0
   20.4829  -28.7756   12.4289 H   0  0  0  0  0  0
   19.8328  -31.2403   10.7122 H   0  0  0  0  0  0
   19.9067  -29.8025   14.9097 H   0  0  0  0  0  0
   18.8864  -31.8148   15.3365 H   0  0  0  0  0  0
   20.8656  -28.4442   10.1575 H   0  0  0  0  0  0
   17.4244  -31.6848   10.7908 H   0  0  0  0  0  0
   19.9075  -29.9968    7.9990 H   0  0  0  0  0  0
   21.1432  -31.0190    8.6359 H   0  0  0  0  0  0
   21.9721  -28.2622    8.1291 H   0  0  0  0  0  0
   26.5353  -26.7546    4.6665 H   0  0  0  0  0  0
   24.6131  -30.5642    5.3827 H   0  0  0  0  0  0
   22.9600  -25.8427    7.2791 H   0  0  0  0  0  0
   25.3615  -25.0093    5.4149 H   0  0  0  0  0  0
   12.4900  -31.2851   11.6632 H   0  0  0  0  0  0
   13.3027  -29.6035   15.4007 H   0  0  0  0  0  0
  1  2  1  0  0  0
  1  5  1  0  0  0
  1  8  1  0  0  0
  1 34  1  0  0  0
  2  3  1  0  0  0
  2  9  1  0  0  0
  2 35  1  0  0  0
  3  4  1  0  0  0
  3  7  1  0  0  0
  3 36  1  0  0  0
  4  5  1  0  0  0
  5  6  1  0  0  0
  5 37  1  0  0  0
  6 10  2  0  0  0
  6 38  1  0  0  0
  7 11  1  0  0  0
  7 28  1  0  0  0
  8 39  1  0  0  0
  9 40  1  0  0  0
 10 13  1  0  0  0
 10 41  1  0  0  0
 11 12  2  0  0  0
 11 42  1  0  0  0
 12 29  1  0  0  0
 13 14  1  0  0  0
 13 43  1  0  0  0
 13 44  1  0  0  0
 14 15  1  0  0  0
 14 45  1  0  0  0
 15 16  1  0  0  0
 15 25  2  0  0  0
 16 17  2  0  0  0
 16 21  1  0  0  0
 17 18  1  0  0  0
 17 23  1  0  0  0
 18 19  2  0  0  0
 18 24  1  0  0  0
 19 20  1  0  0  0
 19 46  1  0  0  0
 20 21  2  0  0  0
 20 22  1  0  0  0
 21 47  1  0  0  0
 22 26  1  0  0  0
 22 27  2  0  0  0
 23 48  1  0  0  0
 24 49  1  0  0  0
 28 29  2  0  0  0
 28 33  1  0  0  0
 29 30  1  0  0  0
 30 31  2  0  0  0
 30 50  1  0  0  0
 31 32  1  0  0  0
 32 33  2  0  0  0
 32 51  1  0  0  0
M  CHG  2  22   1  26  -1
M  END
> <s_pdb_PDB_ID>


> <s_pdb_PDB_CLASSIFICATION>
3OE4_PROTEIN

> <s_pdb_PDB_format_version>
3.0

> <b_ppw_prepared>
1

> <s_ppw_prepared_with_version>
2020-1

> <b_ppw_created_disulfur>
1

> <r_ff_Potential_Energy-OPLS3e>
-52484.4787177881

> <r_ff_RMS_Derivative-OPLS3e>
0.0485026465332263

> <b_ff_Minimization_Converged-OPLS3e>
1

> <r_i_Potential_Energy-OPLS_2005>
-5651.73429022021

> <r_i_RMS_Derivative-OPLS_2005>
0.0493193637088047

> <r_i_Max_Derivative-OPLS_2005>
1.03118238889657

> <r_i_Stretch_Energy-OPLS_2005>
4.58448688895921

> <r_i_Bend_Energy-OPLS_2005>
146.957036512711

> <r_i_LJ-14_Energy-OPLS_2005>
312.834793944287

> <r_i_El-14_Energy-OPLS_2005>
-226.595471942456

> <r_i_Van_der_Waals_Energy-OPLS_2005>
-494.402527084801

> <r_i_Electrostatic_Energy-OPLS_2005>
-5483.92065770761

> <r_i_Dihedral_Energy-OPLS_2005>
88.8080491686988

> <r_i_target_temperature>
298

> <s_user_Residue_ID>
_:1

$$$$
