:1gpn_ligand
                    3D
 Schrodinger Suite 2020-1.
 40 43  0  0  1  0            999 V2000
    1.0680   68.7710   61.1630 C   0  0  0  0  0  0
    0.4400   69.2080   60.1960 O   0  0  0  0  0  0
    2.3530   68.2650   60.9830 N   0  0  0  0  0  0
    0.5440   68.7450   62.5170 C   0  0  0  0  0  0
    1.3020   68.2450   63.5450 C   0  0  0  0  0  0
    2.6350   67.7280   63.3560 C   0  0  0  0  0  0
    3.1490   67.7340   62.0130 C   0  0  0  0  0  0
    4.5200   67.2110   61.6300 C   0  0  0  0  0  0
    5.3120   66.5280   62.8520 C   0  0  2  0  0  0
    4.8890   65.0460   63.0240 C   0  0  0  0  0  0
    5.1250   69.4560   65.4310 C   0  0  0  0  0  0
    5.4320   68.7380   64.1060 C   0  0  0  0  0  0
    5.0240   67.2560   64.1870 C   0  0  1  0  0  0
    3.5160   67.1410   64.5690 C   0  0  1  0  0  0
    3.2390   67.8790   65.8580 N   0  3  0  0  0  0
    3.1120   65.6420   64.7490 C   0  0  0  0  0  0
    3.8870   64.6480   63.8920 C   0  0  0  0  0  0
    3.4650   63.2140   64.0870 C   0  0  0  0  0  0
    3.6510   69.3860   65.8010 C   0  0  0  0  0  0
    2.7524   68.2640   60.0525 H   0  0  0  0  0  0
   -0.4518   69.1164   62.7119 H   0  0  0  0  0  0
    0.8672   68.2331   64.5331 H   0  0  0  0  0  0
    5.0961   68.0693   61.2833 H   0  0  0  0  0  0
    4.4592   66.5428   60.7759 H   0  0  0  0  0  0
    6.3757   66.5625   62.6340 H   0  0  0  0  0  0
    5.4084   64.3066   62.4453 H   0  0  0  0  0  0
    5.4396   70.4969   65.3615 H   0  0  0  0  0  0
    5.7239   69.0160   66.2295 H   0  0  0  0  0  0
    6.4989   68.8087   63.8945 H   0  0  0  0  0  0
    4.9340   69.2748   63.2999 H   0  0  0  0  0  0
    5.6221   66.7861   64.9708 H   0  0  0  0  0  0
    3.7659   67.4364   66.5978 H   0  0  0  0  0  0
    2.2547   67.8131   66.0730 H   0  0  0  0  0  0
    2.0409   65.5082   64.5881 H   0  0  0  0  0  0
    3.2972   65.3447   65.7824 H   0  0  0  0  0  0
    2.3857   63.1205   64.0335 H   0  0  0  0  0  0
    3.9373   62.5565   63.3575 H   0  0  0  0  0  0
    3.7630   62.8785   65.0791 H   0  0  0  0  0  0
    3.0479   69.8591   65.0374 H   0  0  0  0  0  0
    3.4511   69.8723   66.7561 H   0  0  0  0  0  0
  1  4  1  0  0  0
  1  3  1  0  0  0
  1  2  2  0  0  0
  3  7  1  0  0  0
  3 20  1  0  0  0
  4  5  2  0  0  0
  4 21  1  0  0  0
  5  6  1  0  0  0
  5 22  1  0  0  0
  6  7  2  0  0  0
  6 14  1  0  0  0
  7  8  1  0  0  0
  8  9  1  0  0  0
  8 23  1  0  0  0
  8 24  1  0  0  0
  9 13  1  0  0  0
  9 10  1  0  0  0
  9 25  1  0  0  0
 10 17  2  0  0  0
 10 26  1  0  0  0
 11 12  1  0  0  0
 11 19  1  0  0  0
 11 27  1  0  0  0
 11 28  1  0  0  0
 12 13  1  0  0  0
 12 29  1  0  0  0
 12 30  1  0  0  0
 13 14  1  0  0  0
 13 31  1  0  0  0
 14 16  1  0  0  0
 14 15  1  0  0  0
 15 19  1  0  0  0
 15 32  1  0  0  0
 15 33  1  0  0  0
 16 17  1  0  0  0
 16 34  1  0  0  0
 16 35  1  0  0  0
 17 18  1  0  0  0
 18 36  1  0  0  0
 18 37  1  0  0  0
 18 38  1  0  0  0
 19 39  1  0  0  0
 19 40  1  0  0  0
M  CHG  1  15   1
M  END
> <s_pdb_PDB_ID>


> <s_pdb_PDB_CLASSIFICATION>
1GPN_PROTEIN

> <s_pdb_PDB_format_version>
3.0

> <b_ppw_prepared>
1

> <s_ppw_prepared_with_version>
2020-1

> <b_ppw_created_disulfur>
1

> <s_ppw_het_states>
eJxdkkEOgyAURK9CXNuG/wWZ9iqNNzDddWW8e4FPO4gL8xyF+TN4TDI93StfYUl+dn6bXUEhKnEhBmIkrsREBPHxR9ANdAPdQDdkN2lIN9ANdEN1K9wi2dxteRN0FPIEyryWRJjaAiuzW2xhA7ZEewGd7Vq/SBRSFUABdYkOQilM2J2FVjZo5clF4Kbl3WVT6DAYajjEUegKD+Om8TeH8BzsCKT0fvP3PMcxATHkf6s8nrN7f/bd7tt2fgEGrITm

> <r_ff_Potential_Energy-OPLS3e>
-97818.8764128229

> <r_ff_RMS_Derivative-OPLS3e>
0.0481725287333784

> <b_ff_Minimization_Converged-OPLS3e>
1

> <r_i_Potential_Energy-OPLS_2005>
-16384.3529898524

> <r_i_RMS_Derivative-OPLS_2005>
0.0544619313523419

> <r_i_Max_Derivative-OPLS_2005>
3.45936124080974

> <r_i_Stretch_Energy-OPLS_2005>
19.454288766689

> <r_i_Bend_Energy-OPLS_2005>
407.828284817217

> <r_i_LJ-14_Energy-OPLS_2005>
717.988336801409

> <r_i_El-14_Energy-OPLS_2005>
-590.150753105613

> <r_i_Van_der_Waals_Energy-OPLS_2005>
-1132.29139577365

> <r_i_Electrostatic_Energy-OPLS_2005>
-16068.7491352706

> <r_i_Dihedral_Energy-OPLS_2005>
261.567383912089

> <r_i_target_temperature>
298

> <s_user_Residue_ID>
_:1

$$$$
