:4j21_ligand
                    3D
 Schrodinger Suite 2020-1.
 33 35  0  0  1  0            999 V2000
  -12.4600    1.8530   14.2040 C   0  0  0  0  0  0
  -12.1000    2.5450   11.9470 C   0  0  0  0  0  0
  -11.7770    3.2110    9.6340 C   0  0  0  0  0  0
  -10.2290    3.1630    6.1770 C   0  0  0  0  0  0
  -12.5250    2.0800    7.4540 C   0  0  0  0  0  0
  -11.9010    4.9090   11.3700 C   0  0  0  0  0  0
  -12.0880    3.9300   12.3750 C   0  0  0  0  0  0
  -12.3270    5.7480   14.3470 C   0  0  0  0  0  0
  -12.2830    4.2770   13.8120 C   0  0  0  0  0  0
  -12.4580    3.2350   14.6730 C   0  0  0  0  0  0
  -12.6530    0.9230   15.0080 O   0  0  0  0  0  0
  -12.2920    1.5530   12.8830 N   0  0  0  0  0  0
  -11.9290    2.2080   10.6070 C   0  0  0  0  0  0
  -11.5820    2.8860    8.1800 C   0  0  0  0  0  0
  -10.4410    3.4030    7.5190 C   0  0  0  0  0  0
  -11.1640    2.4040    5.4830 C   0  0  0  0  0  0
  -10.9630    2.1650    4.1270 N   0  0  0  0  0  0
  -12.2980    1.8580    6.1040 C   0  0  0  0  0  0
  -13.9790    1.4080    8.1850 Cl  0  0  0  0  0  0
  -11.7290    4.5470   10.0440 C   0  0  0  0  0  0
   -9.3668    3.5554    5.6691 H   0  0  0  0  0  0
  -11.8964    5.9541   11.6372 H   0  0  0  0  0  0
  -12.3771    5.7651   15.4352 H   0  0  0  0  0  0
  -11.4587    6.3147   14.0264 H   0  0  0  0  0  0
  -13.2063    6.2617   13.9628 H   0  0  0  0  0  0
  -12.6125    3.4279   15.7248 H   0  0  0  0  0  0
  -12.3321    0.5920   12.5670 H   0  0  0  0  0  0
  -11.9331    1.1693   10.3086 H   0  0  0  0  0  0
   -9.7160    3.9848    8.0653 H   0  0  0  0  0  0
  -11.5602    1.5329    3.6140 H   0  0  0  0  0  0
  -10.0934    2.4226    3.6815 H   0  0  0  0  0  0
  -13.0008    1.2670    5.5345 H   0  0  0  0  0  0
  -11.6124    5.3163    9.2990 H   0  0  0  0  0  0
  1 10  1  0  0  0
  1 11  2  0  0  0
  1 12  1  0  0  0
  2  7  2  0  0  0
  2 12  1  0  0  0
  2 13  1  0  0  0
  3 13  2  0  0  0
  3 14  1  0  0  0
  3 20  1  0  0  0
  4 15  2  0  0  0
  4 16  1  0  0  0
  4 21  1  0  0  0
  5 14  2  0  0  0
  5 18  1  0  0  0
  5 19  1  0  0  0
  6  7  1  0  0  0
  6 20  2  0  0  0
  6 22  1  0  0  0
  7  9  1  0  0  0
  8  9  1  0  0  0
  8 23  1  0  0  0
  8 24  1  0  0  0
  8 25  1  0  0  0
  9 10  2  0  0  0
 10 26  1  0  0  0
 12 27  1  0  0  0
 13 28  1  0  0  0
 14 15  1  0  0  0
 15 29  1  0  0  0
 16 17  1  0  0  0
 16 18  2  0  0  0
 17 30  1  0  0  0
 17 31  1  0  0  0
 18 32  1  0  0  0
 20 33  1  0  0  0
M  END
> <s_pdb_PDB_ID>


> <s_pdb_PDB_CLASSIFICATION>
4J21_PROTEIN

> <s_pdb_PDB_format_version>
3.0

> <b_ppw_prepared>
1

> <s_ppw_prepared_with_version>
2020-1

> <b_ppw_created_disulfur>
1

> <s_ppw_het_states>
eJxlkksOwyAMRK+CWKcVNoRPrlJxg6i7rqLcvRgnGmizQC8jB489OSzbzbzaQ7n4xbi6GMEAXIERmIAZWG4szgEJyEAPDMAVGIEJmIHoRuhG6Ea9m/A1nRqgy6wK7eRJCKgQ7EPxIPxVdNOEbanAkxB/KmjwEXtFwicqZFSk+w4eBRl6qpDRCaGo9VHobRlZaTaExGaB7o0xElGnhDA0h0kQYyx7f7hnw8P6El37zeT1XMz7s+961np+AdD9hws=

> <r_ff_Potential_Energy-OPLS3e>
-97194.3934287859

> <r_ff_RMS_Derivative-OPLS3e>
0.04297515602417

> <b_ff_Minimization_Converged-OPLS3e>
1

> <r_i_Potential_Energy-OPLS_2005>
-6170.16521620875

> <r_i_RMS_Derivative-OPLS_2005>
0.0434779445934963

> <r_i_Max_Derivative-OPLS_2005>
1.04393754759032

> <r_i_Stretch_Energy-OPLS_2005>
6.59847985468587

> <r_i_Bend_Energy-OPLS_2005>
163.649905169214

> <r_i_LJ-14_Energy-OPLS_2005>
274.442115131627

> <r_i_El-14_Energy-OPLS_2005>
-303.31781602094

> <r_i_Van_der_Waals_Energy-OPLS_2005>
-445.442251502857

> <r_i_Electrostatic_Energy-OPLS_2005>
-5974.2427974373

> <r_i_Dihedral_Energy-OPLS_2005>
108.147148596824

> <r_i_target_temperature>
298

> <s_user_Residue_ID>
_:1

$$$$
