:2iwx_ligand
                    3D
 Schrodinger Suite 2020-1.
 44 45  0  0  1  0            999 V2000
   55.2130   75.9430   -5.7160 C   0  0  0  0  0  0
   55.1850   76.8410   -4.5140 C   0  0  0  0  0  0
   54.3080   77.9400   -4.5250 C   0  0  0  0  0  0
   54.2500   78.8390   -3.4690 C   0  0  0  0  0  0
   55.1110   78.6130   -2.3920 C   0  0  0  0  0  0
   55.9470   77.5310   -2.4050 C   0  0  0  0  0  0
   56.0390   76.6130   -3.4390 C   0  0  0  0  0  0
   57.0120   75.4290   -3.3490 C   0  0  0  0  0  0
   58.3680   75.6650   -3.9470 C   0  0  0  0  0  0
   58.8980   77.0470   -4.2040 C   0  0  0  0  0  0
   60.3080   76.9840   -4.8030 C   0  0  0  0  0  0
   60.8100   78.3620   -5.2040 C   0  0  0  0  0  0
   59.9570   79.0080   -6.2950 C   0  0  0  0  0  0
   60.0570   78.2250   -7.6030 C   0  0  0  0  0  0
   58.7230   77.5900   -7.9270 C   0  0  0  0  0  0
   58.6180   76.2670   -8.0280 C   0  0  0  0  0  0
   57.2910   75.6270   -8.3670 C   0  0  0  0  0  0
   56.6900   74.7670   -7.2600 C   0  0  0  0  0  0
   54.2500   75.6110   -6.3730 O   0  0  0  0  0  0
   53.4440   78.1320   -5.5890 O   0  0  0  0  0  0
   55.1350   79.4940   -1.3390 O   0  5  0  0  0  0
   56.9420   77.2720   -0.9640 Cl  0  0  0  0  0  0
   59.0370   74.6520   -4.1670 O   0  0  0  0  0  0
   56.5320   75.5970   -6.0790 O   0  0  0  0  0  0
   53.5778   79.6851   -3.4812 H   0  0  0  0  0  0
   56.5733   74.5695   -3.8436 H   0  0  0  0  0  0
   57.1393   75.1156   -2.3148 H   0  0  0  0  0  0
   58.9006   77.6169   -3.2747 H   0  0  0  0  0  0
   58.2031   77.5365   -4.8837 H   0  0  0  0  0  0
   60.3436   76.3091   -5.6580 H   0  0  0  0  0  0
   60.9951   76.5677   -4.0647 H   0  0  0  0  0  0
   61.8465   78.2928   -5.5365 H   0  0  0  0  0  0
   60.8201   79.0110   -4.3273 H   0  0  0  0  0  0
   60.3667   80.0035   -6.4634 H   0  0  0  0  0  0
   58.9274   79.1827   -5.9817 H   0  0  0  0  0  0
   60.8554   77.4821   -7.5798 H   0  0  0  0  0  0
   60.3137   78.8897   -8.4241 H   0  0  0  0  0  0
   57.8754   78.2434   -8.0743 H   0  0  0  0  0  0
   59.4646   75.6150   -7.8703 H   0  0  0  0  0  0
   57.4383   75.0141   -9.2559 H   0  0  0  0  0  0
   56.5705   76.3961   -8.6467 H   0  0  0  0  0  0
   57.3760   73.9568   -7.0125 H   0  0  0  0  0  0
   55.7662   74.2938   -7.5944 H   0  0  0  0  0  0
   52.8317   78.8561   -5.4649 H   0  0  0  0  0  0
  1  2  1  0  0  0
  1 19  2  0  0  0
  1 24  1  0  0  0
  2  3  2  0  0  0
  2  7  1  0  0  0
  3  4  1  0  0  0
  3 20  1  0  0  0
  4  5  2  0  0  0
  4 25  1  0  0  0
  5  6  1  0  0  0
  5 21  1  0  0  0
  6  7  2  0  0  0
  6 22  1  0  0  0
  7  8  1  0  0  0
  8  9  1  0  0  0
  8 26  1  0  0  0
  8 27  1  0  0  0
  9 10  1  0  0  0
  9 23  2  0  0  0
 10 11  1  0  0  0
 10 28  1  0  0  0
 10 29  1  0  0  0
 11 12  1  0  0  0
 11 30  1  0  0  0
 11 31  1  0  0  0
 12 13  1  0  0  0
 12 32  1  0  0  0
 12 33  1  0  0  0
 13 14  1  0  0  0
 13 34  1  0  0  0
 13 35  1  0  0  0
 14 15  1  0  0  0
 14 36  1  0  0  0
 14 37  1  0  0  0
 15 16  2  0  0  0
 15 38  1  0  0  0
 16 17  1  0  0  0
 16 39  1  0  0  0
 17 18  1  0  0  0
 17 40  1  0  0  0
 17 41  1  0  0  0
 18 24  1  0  0  0
 18 42  1  0  0  0
 18 43  1  0  0  0
 20 44  1  0  0  0
M  CHG  1  21  -1
M  END
> <s_pdb_PDB_ID>


> <s_pdb_PDB_CLASSIFICATION>
2IWX_PROTEIN

> <s_pdb_PDB_format_version>
3.0

> <b_ppw_prepared>
1

> <s_ppw_prepared_with_version>
2020-1

> <b_ppw_created_disulfur>
1

> <s_ppw_het_states>
eJxdkUEOgkAQBL+y4Yxme0ABv2L4AfHmifB3mR20VjiQTgsW27U2ah7puV+mrDbluU0ejdgRe+KNeCcOxJE4/aIyEZqgCZqgCZqgCZqgCZpBs5120ZHBGTgrOM/HFLHC8U4U/t9WF/6SmCzWsr9i4ImuFP2p8K8UA8e2xsyxsOrCTyPWD4rVhVWfPpQnRoqxFBPFVA6XT4VxFv8tlAl7IU44DH3CZEgUPkOlsBpCDbehVRgOucLzd/W9yVcbfJF1a9PrvSxxn+ftA7J+li4=

> <r_ff_Potential_Energy-OPLS3e>
-279569.919997668

> <r_ff_RMS_Derivative-OPLS3e>
0.0476954439709254

> <b_ff_Minimization_Converged-OPLS3e>
1

> <r_i_Potential_Energy-OPLS_2005>
-6620.41264028437

> <r_i_RMS_Derivative-OPLS_2005>
0.0705615886006338

> <r_i_Max_Derivative-OPLS_2005>
2.0850725180766

> <r_i_Stretch_Energy-OPLS_2005>
6.67385029306629

> <r_i_Bend_Energy-OPLS_2005>
146.807827704317

> <r_i_LJ-14_Energy-OPLS_2005>
320.765509182754

> <r_i_El-14_Energy-OPLS_2005>
-229.156533947309

> <r_i_Van_der_Waals_Energy-OPLS_2005>
-492.658048732007

> <r_i_Electrostatic_Energy-OPLS_2005>
-6439.04357065006

> <r_i_Dihedral_Energy-OPLS_2005>
66.1983258648625

> <r_i_target_temperature>
298

> <s_user_Residue_ID>
_:1

$$$$
