:3fv2_ligand
                    3D
 Schrodinger Suite 2020-1.
 36 37  0  0  1  0            999 V2000
   -3.3740   14.3160   17.3480 O   0  0  0  0  0  0
   -4.0420   15.1370   18.0250 C   0  0  0  0  0  0
   -3.5440   16.1570   18.5470 O   0  5  0  0  0  0
   -5.5100   14.9030   18.2720 C   0  0  1  0  0  0
   -5.9230   13.6230   17.7090 N   0  3  0  0  0  0
   -5.7850   15.0030   19.7730 C   0  0  0  0  0  0
   -7.2530   15.2080   20.1480 C   0  0  2  0  0  0
   -7.8230   16.4930   19.5790 C   0  0  0  0  0  0
   -9.0390   16.4910   19.2390 O   0  0  0  0  0  0
   -7.0590   17.4880   19.4470 O   0  5  0  0  0  0
   -7.4110   15.1890   21.6760 C   0  0  0  0  0  0
   -8.0480   14.1220   19.6570 O   0  0  0  0  0  0
   -8.3820   13.2310   20.7160 C   0  0  1  0  0  0
   -8.5000   14.1530   21.9240 C   0  0  2  0  0  0
   -9.7640   14.8320   21.9940 O   0  0  0  0  0  0
  -10.9150   14.0000   21.8060 C   0  0  0  0  0  0
  -10.8710   13.3470   20.4260 C   0  0  1  0  0  0
  -10.8380   14.3750   19.4220 O   0  0  0  0  0  0
   -9.6370   12.4590   20.3260 C   0  0  1  0  0  0
   -9.4990   11.9160   19.0000 O   0  0  0  0  0  0
   -6.0807   15.6580   17.7490 H   0  0  0  0  0  0
   -6.9196   13.4967   17.8335 H   0  0  0  0  0  0
   -5.7138   13.6214   16.7192 H   0  0  0  0  0  0
   -5.4184   12.8676   18.1523 H   0  0  0  0  0  0
   -5.2155   15.7861   20.2753 H   0  0  0  0  0  0
   -5.4608   14.0721   20.2225 H   0  0  0  0  0  0
   -7.6884   16.1521   22.0931 H   0  0  0  0  0  0
   -6.4936   14.9016   22.1763 H   0  0  0  0  0  0
   -7.5428   12.5475   20.8472 H   0  0  0  0  0  0
   -8.3469   13.6229   22.8618 H   0  0  0  0  0  0
  -11.7912   14.6320   21.9270 H   0  0  0  0  0  0
  -10.9728   13.2190   22.5599 H   0  0  0  0  0  0
  -11.7625   12.7527   20.2746 H   0  0  0  0  0  0
  -10.0570   14.9049   19.5428 H   0  0  0  0  0  0
   -9.7629   11.6201   21.0092 H   0  0  0  0  0  0
   -9.3180   12.6315   18.4015 H   0  0  0  0  0  0
  1  2  2  0  0  0
  2  3  1  0  0  0
  2  4  1  0  0  0
  4  5  1  0  0  0
  4  6  1  0  0  0
  4 21  1  0  0  0
  5 22  1  0  0  0
  5 23  1  0  0  0
  5 24  1  0  0  0
  6  7  1  0  0  0
  6 25  1  0  0  0
  6 26  1  0  0  0
  7  8  1  0  0  0
  7 11  1  0  0  0
  7 12  1  0  0  0
  8  9  2  0  0  0
  8 10  1  0  0  0
 11 14  1  0  0  0
 11 27  1  0  0  0
 11 28  1  0  0  0
 12 13  1  0  0  0
 13 14  1  0  0  0
 13 19  1  0  0  0
 13 29  1  0  0  0
 14 15  1  0  0  0
 14 30  1  0  0  0
 15 16  1  0  0  0
 16 17  1  0  0  0
 16 31  1  0  0  0
 16 32  1  0  0  0
 17 18  1  0  0  0
 17 19  1  0  0  0
 17 33  1  0  0  0
 18 34  1  0  0  0
 19 20  1  0  0  0
 19 35  1  0  0  0
 20 36  1  0  0  0
M  CHG  3   3  -1   5   1  10  -1
M  END
> <s_pdb_PDB_ID>


> <s_pdb_PDB_CLASSIFICATION>
3FV2_PROTEIN

> <s_pdb_PDB_format_version>
3.0

> <b_ppw_prepared>
1

> <s_ppw_prepared_with_version>
2020-1

> <b_ppw_created_disulfur>
1

> <s_ppw_het_states>
eJxdkEEOgzAMBL8ScQ5VHBwo/UrFD1BvPSH+XhxTpikHNBoh1rtbJ90jPI8n5yHHkJYYDAdQY+jl5IIeY/jaCXsH5ws1gcLflDwlTxUkTkeQOCVOiSvEFTE0Pvt5tUxLLyiNKIhSxfgvpqa89xYm8PaNsLKtGBBzFYnDXMj1hdbTlcO0Xqqcbth+UYVtIazpQwqb+pzCsj6qsK9P24ifnxr6zGIz9+l2iG2P4fVeV38vy/4BQUmAag==

> <r_ff_Potential_Energy-OPLS3e>
-81964.1443042165

> <r_ff_RMS_Derivative-OPLS3e>
0.0370172095037574

> <b_ff_Minimization_Converged-OPLS3e>
1

> <r_i_Potential_Energy-OPLS_2005>
-7641.73490895028

> <r_i_RMS_Derivative-OPLS_2005>
0.0427587255781563

> <r_i_Max_Derivative-OPLS_2005>
1.12382834841556

> <r_i_Stretch_Energy-OPLS_2005>
6.93041686318956

> <r_i_Bend_Energy-OPLS_2005>
161.660473087322

> <r_i_LJ-14_Energy-OPLS_2005>
357.283715940409

> <r_i_El-14_Energy-OPLS_2005>
-286.198167672596

> <r_i_Van_der_Waals_Energy-OPLS_2005>
-619.208540415554

> <r_i_Electrostatic_Energy-OPLS_2005>
-7327.06736866585

> <r_i_Dihedral_Energy-OPLS_2005>
64.8645619128026

> <r_i_target_temperature>
298

> <s_user_Residue_ID>
_:1

$$$$
