:2xb8_ligand
                    3D
 Schrodinger Suite 2020-1.
 39 40  0  0  1  0            999 V2000
   20.2440    1.6680   36.8330 C   0  0  0  0  0  0
   19.1300    1.4710   35.9620 O   0  0  0  0  0  0
   17.9740    2.0160   36.4940 C   0  0  0  0  0  0
   16.8010    1.6940   35.8640 C   0  0  0  0  0  0
   15.5680    2.1550   36.2860 C   0  0  0  0  0  0
   17.8850    2.8580   37.6010 C   0  0  0  0  0  0
   16.6240    3.3330   38.0230 C   0  0  0  0  0  0
   15.4490    2.9840   37.3600 C   0  0  0  0  0  0
   14.0320    3.4540   37.7030 C   0  0  0  0  0  0
   13.3690    2.7050   38.8520 C   0  0  1  0  0  0
   13.7620    3.3750   40.1680 C   0  0  0  0  0  0
   14.5280    4.3410   40.2000 O   0  0  0  0  0  0
   13.1820    2.8490   41.4630 C   0  0  1  0  0  0
   13.4440    3.8120   42.5080 O   0  0  0  0  0  0
   11.6670    2.7290   41.2950 C   0  0  2  0  0  0
   11.1380    2.0430   42.4370 O   0  0  0  0  0  0
   11.2430    2.0270   39.9810 C   0  0  0  0  0  0
   11.8430    2.6660   38.7210 C   0  0  2  0  0  0
   11.4610    1.8070   37.4960 C   0  0  0  0  0  0
   11.5010    0.5520   37.6400 O   0  0  0  0  0  0
   11.0610    2.4200   36.4670 O   0  5  0  0  0  0
   11.2760    3.9950   38.5400 O   0  0  0  0  0  0
   21.1348    1.2533   36.3604 H   0  0  0  0  0  0
   20.4541    2.7133   37.0482 H   0  0  0  0  0  0
   20.1049    1.1352   37.7752 H   0  0  0  0  0  0
   16.8371    1.0112   35.0342 H   0  0  0  0  0  0
   14.6886    1.8357   35.7462 H   0  0  0  0  0  0
   18.7408    3.1555   38.1798 H   0  0  0  0  0  0
   16.5837    3.9875   38.8782 H   0  0  0  0  0  0
   13.4475    3.3688   36.7899 H   0  0  0  0  0  0
   14.0516    4.5343   37.8538 H   0  0  0  0  0  0
   13.7391    1.6797   38.8715 H   0  0  0  0  0  0
   13.6390    1.8881   41.7019 H   0  0  0  0  0  0
   14.3875    3.8842   42.6315 H   0  0  0  0  0  0
   11.2283    3.7288   41.2962 H   0  0  0  0  0  0
   11.4275    2.5070   43.2088 H   0  0  0  0  0  0
   10.1540    2.0137   39.9112 H   0  0  0  0  0  0
   11.5522    0.9836   40.0654 H   0  0  0  0  0  0
   11.3911    4.2231   37.6284 H   0  0  0  0  0  0
  1  2  1  0  0  0
  1 23  1  0  0  0
  1 24  1  0  0  0
  1 25  1  0  0  0
  2  3  1  0  0  0
  3  4  2  0  0  0
  3  6  1  0  0  0
  4  5  1  0  0  0
  4 26  1  0  0  0
  5  8  2  0  0  0
  5 27  1  0  0  0
  6  7  2  0  0  0
  6 28  1  0  0  0
  7  8  1  0  0  0
  7 29  1  0  0  0
  8  9  1  0  0  0
  9 10  1  0  0  0
  9 30  1  0  0  0
  9 31  1  0  0  0
 10 11  1  0  0  0
 10 18  1  0  0  0
 10 32  1  0  0  0
 11 12  2  0  0  0
 11 13  1  0  0  0
 13 14  1  0  0  0
 13 15  1  0  0  0
 13 33  1  0  0  0
 14 34  1  0  0  0
 15 16  1  0  0  0
 15 17  1  0  0  0
 15 35  1  0  0  0
 16 36  1  0  0  0
 17 18  1  0  0  0
 17 37  1  0  0  0
 17 38  1  0  0  0
 18 19  1  0  0  0
 18 22  1  0  0  0
 19 20  2  0  0  0
 19 21  1  0  0  0
 22 39  1  0  0  0
M  CHG  1  21  -1
M  END
> <s_pdb_PDB_ID>


> <s_pdb_PDB_CLASSIFICATION>
2XB8_PROTEIN

> <s_pdb_PDB_format_version>
3.0

> <b_ppw_prepared>
1

> <s_ppw_prepared_with_version>
2020-1

> <b_ppw_created_disulfur>
1

> <s_ppw_het_states>
eJxlkUEOgjAURK/SsAbDn7agXsVwA+LOFeHuUn41L4UFGV6AYR5bZ90zvI7DYhoffRiXPpRsI7IhCzkiJ+SMPCHPyHdk9Aq9Qq/QK/QKvUKv0Cv0Cr06egerF/EsLhc/FdWCwUiVYRBTnahBCXfJUQSKjiY8mBxloPy/y6CzmjRYrUINcqvXBonv8o3FuBqEjfJBxX+LMEg+SOmKMlC+fIR8kOYLinAv31h+nhp0bjzYMN6OB7a9D+/Puvp5WfYvPvaYzw==

> <r_ff_Potential_Energy-OPLS3e>
-174737.791542673

> <r_ff_RMS_Derivative-OPLS3e>
0.0492497612903609

> <b_ff_Minimization_Converged-OPLS3e>
1

> <r_i_Potential_Energy-OPLS_2005>
-53798.4575600401

> <r_i_RMS_Derivative-OPLS_2005>
0.04899734244369

> <r_i_Max_Derivative-OPLS_2005>
1.23666747873766

> <r_i_Stretch_Energy-OPLS_2005>
43.3889140611376

> <r_i_Bend_Energy-OPLS_2005>
1164.7175675989

> <r_i_LJ-14_Energy-OPLS_2005>
2278.30168793754

> <r_i_El-14_Energy-OPLS_2005>
-2562.42731931914

> <r_i_Van_der_Waals_Energy-OPLS_2005>
-4251.0904541097

> <r_i_Electrostatic_Energy-OPLS_2005>
-51284.2772045222

> <r_i_Dihedral_Energy-OPLS_2005>
812.929248313323

> <r_i_target_temperature>
298

> <s_user_Residue_ID>
_:1

$$$$
