:2zcr_ligand
                    3D
 Schrodinger Suite 2020-1.
 53 54  0  0  1  0            999 V2000
    9.6030   61.6780   37.6620 C   0  0  0  0  0  0
   10.0000   60.3370   38.2800 C   0  0  0  0  0  0
   11.4430   59.9530   37.9370 C   0  0  0  0  0  0
   11.7280   58.5850   38.5610 C   0  0  0  0  0  0
   13.0590   57.9340   38.1750 C   0  0  0  0  0  0
   13.1960   57.2880   36.9500 C   0  0  0  0  0  0
   14.2900   56.4650   36.7060 C   0  0  0  0  0  0
   14.0400   57.7730   39.1450 C   0  0  0  0  0  0
   15.1350   56.9520   38.9010 C   0  0  0  0  0  0
   15.2640   56.2920   37.6840 C   0  0  0  0  0  0
   16.4110   55.5450   37.4380 C   0  0  0  0  0  0
   17.0740   54.9240   38.4920 C   0  0  0  0  0  0
   18.2950   54.2940   38.2670 C   0  0  0  0  0  0
   16.9620   55.5140   36.1630 C   0  0  0  0  0  0
   18.1830   54.8860   35.9390 C   0  0  0  0  0  0
   18.8540   54.2790   36.9950 C   0  0  0  0  0  0
   20.2220   53.6230   36.7780 C   0  0  0  0  0  0
   20.1110   52.0980   36.7290 C   0  0  0  0  0  0
   21.4080   51.4360   37.1990 C   0  0  0  0  0  0
   22.5900   51.7140   36.2700 C   0  0  2  0  0  0
   22.6190   50.5110   34.8790 P   0  0  0  0  0  0
   23.9080   50.8500   33.9740 O   0  0  0  0  0  0
   22.8820   49.0690   35.5430 O   0  0  0  0  0  0
   21.3680   50.5640   34.0890 O   0  5  0  0  0  0
   24.1430   51.6000   37.2320 S   0  0  0  0  0  0
   25.2460   51.9260   36.3830 O   0  0  0  0  0  0
   24.3020   50.2040   37.7550 O   0  0  0  0  0  0
   24.0800   52.5610   38.3840 O   0  5  0  0  0  0
    8.5366   61.8313   37.7980 H   0  0  0  0  0  0
   10.1221   62.5000   38.1520 H   0  0  0  0  0  0
    9.8328   61.7204   36.6013 H   0  0  0  0  0  0
    9.3167   59.5677   37.9171 H   0  0  0  0  0  0
    9.8752   60.3839   39.3611 H   0  0  0  0  0  0
   12.1493   60.6942   38.3123 H   0  0  0  0  0  0
   11.5657   59.9029   36.8538 H   0  0  0  0  0  0
   10.9325   57.9018   38.2894 H   0  0  0  0  0  0
   11.6868   58.6903   39.6445 H   0  0  0  0  0  0
   12.4175   57.3719   36.2058 H   0  0  0  0  0  0
   14.3498   55.9561   35.7550 H   0  0  0  0  0  0
   13.9359   58.2458   40.1098 H   0  0  0  0  0  0
   15.8839   56.8829   39.6756 H   0  0  0  0  0  0
   16.6693   54.9071   39.4900 H   0  0  0  0  0  0
   18.8058   53.8220   39.0917 H   0  0  0  0  0  0
   16.4990   56.0305   35.3365 H   0  0  0  0  0  0
   18.6163   54.9024   34.9505 H   0  0  0  0  0  0
   20.8716   53.9447   37.5933 H   0  0  0  0  0  0
   20.6678   54.0060   35.8590 H   0  0  0  0  0  0
   19.7994   51.7622   35.7403 H   0  0  0  0  0  0
   19.3279   51.7715   37.4141 H   0  0  0  0  0  0
   21.2722   50.3634   37.3400 H   0  0  0  0  0  0
   21.6367   51.8530   38.1673 H   0  0  0  0  0  0
   22.5130   52.7168   35.8860 H   0  0  0  0  0  0
   23.4828   49.1784   36.2665 H   0  0  0  0  0  0
  1  2  1  0  0  0
  1 29  1  0  0  0
  1 30  1  0  0  0
  1 31  1  0  0  0
  2  3  1  0  0  0
  2 32  1  0  0  0
  2 33  1  0  0  0
  3  4  1  0  0  0
  3 34  1  0  0  0
  3 35  1  0  0  0
  4  5  1  0  0  0
  4 36  1  0  0  0
  4 37  1  0  0  0
  5  6  2  0  0  0
  5  8  1  0  0  0
  6  7  1  0  0  0
  6 38  1  0  0  0
  7 10  2  0  0  0
  7 39  1  0  0  0
  8  9  2  0  0  0
  8 40  1  0  0  0
  9 10  1  0  0  0
  9 41  1  0  0  0
 10 11  1  0  0  0
 11 12  2  0  0  0
 11 14  1  0  0  0
 12 13  1  0  0  0
 12 42  1  0  0  0
 13 16  2  0  0  0
 13 43  1  0  0  0
 14 15  2  0  0  0
 14 44  1  0  0  0
 15 16  1  0  0  0
 15 45  1  0  0  0
 16 17  1  0  0  0
 17 18  1  0  0  0
 17 46  1  0  0  0
 17 47  1  0  0  0
 18 19  1  0  0  0
 18 48  1  0  0  0
 18 49  1  0  0  0
 19 20  1  0  0  0
 19 50  1  0  0  0
 19 51  1  0  0  0
 20 21  1  0  0  0
 20 25  1  0  0  0
 20 52  1  0  0  0
 21 22  2  0  0  0
 21 23  1  0  0  0
 21 24  1  0  0  0
 23 53  1  0  0  0
 25 26  2  0  0  0
 25 27  2  0  0  0
 25 28  1  0  0  0
M  CHG  2  24  -1  28  -1
M  END
> <s_pdb_PDB_ID>


> <s_pdb_PDB_CLASSIFICATION>
2ZCR_PROTEIN

> <s_pdb_PDB_format_version>
3.0

> <b_ppw_prepared>
1

> <s_ppw_prepared_with_version>
2020-1

> <b_ppw_created_disulfur>
1

> <s_ppw_het_states>
eJxdkUEOglAMRK9CWKOhnz9FvYrhBsadK8LdhRZ9KAsyTEpeOzO3pb019/Up43Dpmn7qmk1ev7L2SEMW5ICsSCEdOSKhVWiCJmiCJmiCJmiCJmiCJmgOzVfayXYNzsE5OFcMbx97bhmZkV4GZ2SY8RlJZohGnhll+THExBBGxahhjPyiMBzDPxNG/Jm8UULmX46GDpvGLeIWxS1iU8UtW0WFtnLC6CzrMprL0oz+sjqjxSzQ6DJr/DGcCJWrc0sa3v9NOMd5bOrcshv134hNV6c/y7bV5qVrnq/HI9/TtLwB8AOwXw==

> <r_ff_Potential_Energy-OPLS3e>
-192695.781854873

> <r_ff_RMS_Derivative-OPLS3e>
0.0461328242505596

> <b_ff_Minimization_Converged-OPLS3e>
1

> <r_i_Potential_Energy-OPLS_2005>
-8849.94320942606

> <r_i_RMS_Derivative-OPLS_2005>
0.0474266456667924

> <r_i_Max_Derivative-OPLS_2005>
1.68827824996182

> <r_i_Stretch_Energy-OPLS_2005>
9.5773650055157

> <r_i_Bend_Energy-OPLS_2005>
192.499496851761

> <r_i_LJ-14_Energy-OPLS_2005>
381.800085877682

> <r_i_El-14_Energy-OPLS_2005>
-381.814204311277

> <r_i_Van_der_Waals_Energy-OPLS_2005>
-679.267911652668

> <r_i_Electrostatic_Energy-OPLS_2005>
-8479.27817125503

> <r_i_Dihedral_Energy-OPLS_2005>
106.540130057957

> <r_i_target_temperature>
298

> <s_user_Residue_ID>
_:1

$$$$
