:3pxf_ligand
                    3D
 Schrodinger Suite 2020-1.
 33 35  0  0  1  0            999 V2000
  122.8060  133.7390   64.7520 C   0  0  0  0  0  0
  123.1690  132.5480   64.0390 C   0  0  0  0  0  0
  122.1960  131.7260   63.4460 C   0  0  0  0  0  0
  120.8370  132.0570   63.5310 C   0  0  0  0  0  0
  120.3990  133.2200   64.2130 C   0  0  0  0  0  0
  119.0110  133.5290   64.2760 C   0  0  0  0  0  0
  118.5460  134.6700   64.9420 C   0  0  0  0  0  0
  119.4530  135.5370   65.5670 C   0  0  0  0  0  0
  123.7480  134.4790   65.2890 N   0  0  0  0  0  0
  121.8640  136.4760   66.3950 S   0  0  0  0  0  0
  120.8460  135.2870   65.5420 C   0  0  0  0  0  0
  121.3810  134.1110   64.8550 C   0  0  0  0  0  0
  124.6910  134.0930   66.1350 C   0  0  0  0  0  0
  124.6230  132.8740   66.9080 C   0  0  0  0  0  0
  125.6750  132.5270   67.8100 C   0  0  0  0  0  0
  126.8000  133.3920   67.9490 C   0  0  0  0  0  0
  126.8720  134.5920   67.1900 C   0  0  0  0  0  0
  125.8240  134.9400   66.2910 C   0  0  0  0  0  0
  122.7930  137.0720   65.4610 O   0  0  0  0  0  0
  122.5480  135.7720   67.4650 O   0  0  0  0  0  0
  120.9010  137.6330   67.0540 O   0  5  0  0  0  0
  124.2093  132.2699   63.9515 H   0  0  0  0  0  0
  122.4994  130.8333   62.9196 H   0  0  0  0  0  0
  120.1123  131.4065   63.0631 H   0  0  0  0  0  0
  118.2948  132.8723   63.8039 H   0  0  0  0  0  0
  117.4873  134.8818   64.9761 H   0  0  0  0  0  0
  119.0596  136.4055   66.0709 H   0  0  0  0  0  0
  123.5808  135.4811   65.2789 H   0  0  0  0  0  0
  123.7870  132.2017   66.8044 H   0  0  0  0  0  0
  125.6464  131.6386   68.4062 H   0  0  0  0  0  0
  127.5959  133.1372   68.6332 H   0  0  0  0  0  0
  127.7243  135.2462   67.2990 H   0  0  0  0  0  0
  125.8944  135.8589   65.7266 H   0  0  0  0  0  0
  1  2  2  0  0  0
  1  9  1  0  0  0
  1 12  1  0  0  0
  2  3  1  0  0  0
  2 22  1  0  0  0
  3  4  2  0  0  0
  3 23  1  0  0  0
  4  5  1  0  0  0
  4 24  1  0  0  0
  5  6  1  0  0  0
  5 12  2  0  0  0
  6  7  2  0  0  0
  6 25  1  0  0  0
  7  8  1  0  0  0
  7 26  1  0  0  0
  8 11  2  0  0  0
  8 27  1  0  0  0
  9 13  1  0  0  0
  9 28  1  0  0  0
 10 11  1  0  0  0
 10 19  2  0  0  0
 10 20  2  0  0  0
 10 21  1  0  0  0
 11 12  1  0  0  0
 13 14  2  0  0  0
 13 18  1  0  0  0
 14 15  1  0  0  0
 14 29  1  0  0  0
 15 16  2  0  0  0
 15 30  1  0  0  0
 16 17  1  0  0  0
 16 31  1  0  0  0
 17 18  2  0  0  0
 17 32  1  0  0  0
 18 33  1  0  0  0
M  CHG  1  21  -1
M  END
> <s_pdb_PDB_ID>


> <s_pdb_PDB_CLASSIFICATION>
3PXF_PROTEIN

> <s_pdb_PDB_format_version>
3.0

> <b_ppw_prepared>
1

> <s_ppw_prepared_with_version>
2020-1

> <b_ppw_created_disulfur>
1

> <s_ppw_het_states>
eJxdkUEOhCAQBL9CPOsGGETZr2z4gdnbnox/X5kxlurBNBWg6Z61C93bffYv5ph652vvmhyRGTkhZ2Q5pXhkQEakIHET3AQ3wU1wE9wSbgm3hFvCLe1uQ6htcSS1kPHIoKA9NNzACBj1SAZkBRN3TApmdswKygPIxbYo8CdQqd0FarSuImVaTYFKbccNtBriDcgTXI4804qGE8IZSJeHaVohrVi4whEN14YUmJfdEdsgBv/awbr17vtbFvvXuv0B5AWKIw==

> <r_ff_Potential_Energy-OPLS3e>
-57134.3521564082

> <r_ff_RMS_Derivative-OPLS3e>
0.0450155294026547

> <b_ff_Minimization_Converged-OPLS3e>
1

> <r_i_Potential_Energy-OPLS_2005>
-7916.46288280317

> <r_i_RMS_Derivative-OPLS_2005>
0.0485614207606031

> <r_i_Max_Derivative-OPLS_2005>
1.34378331264404

> <r_i_Stretch_Energy-OPLS_2005>
12.1098647320322

> <r_i_Bend_Energy-OPLS_2005>
241.251724107267

> <r_i_LJ-14_Energy-OPLS_2005>
424.085801658422

> <r_i_El-14_Energy-OPLS_2005>
-344.279159241752

> <r_i_Van_der_Waals_Energy-OPLS_2005>
-588.652448442449

> <r_i_Electrostatic_Energy-OPLS_2005>
-7766.25104739258

> <r_i_Dihedral_Energy-OPLS_2005>
105.272381775897

> <r_i_target_temperature>
298

> <s_user_Residue_ID>
_:1

$$$$
