:4de1_ligand
                    3D
 Schrodinger Suite 2020-1.
 33 36  0  0  1  0            999 V2000
   -9.2120   55.4320   13.8030 O   0  0  0  0  0  0
   -8.8880   55.5960   12.6160 C   0  0  0  0  0  0
   -9.6930   56.5100   11.7420 C   0  0  0  0  0  0
  -10.7160   57.2500   12.3480 C   0  0  0  0  0  0
  -11.4270   58.1590   11.5830 C   0  0  0  0  0  0
  -12.5210   59.0220   11.9410 C   0  0  0  0  0  0
  -12.8350   59.6840   10.8070 N   0  0  0  0  0  0
  -11.9970   59.2600    9.7730 N   0  0  0  0  0  0
  -11.1310   58.3200   10.2380 C   0  0  0  0  0  0
  -10.1190   57.5960    9.6180 C   0  0  0  0  0  0
   -9.3780   56.7000   10.3770 C   0  0  0  0  0  0
   -7.8040   54.9990   12.1030 N   0  0  0  0  0  0
   -6.9440   54.1610   12.8240 C   0  0  0  0  0  0
   -5.6020   54.1490   12.4580 C   0  0  0  0  0  0
   -7.4000   53.3290   13.8610 C   0  0  0  0  0  0
   -6.4710   52.5690   14.5680 C   0  0  0  0  0  0
   -5.1160   52.5580   14.2430 C   0  0  0  0  0  0
   -4.7140   53.3440   13.1770 C   0  0  0  0  0  0
   -3.2930   53.3440   12.8090 C   0  0  0  0  0  0
   -2.8080   53.6280   11.5880 N   0  5  0  0  0  0
   -1.4420   53.4520   11.6620 N   0  0  0  0  0  0
   -1.1290   53.0620   12.9220 N   0  0  0  0  0  0
   -2.2780   53.0180   13.6300 N   0  0  0  0  0  0
  -10.9276   57.1441   13.3963 H   0  0  0  0  0  0
  -13.0425   59.1892   12.8715 H   0  0  0  0  0  0
  -12.0672   59.6430    8.8334 H   0  0  0  0  0  0
   -9.8911   57.7338    8.5733 H   0  0  0  0  0  0
   -8.5778   56.1530    9.9000 H   0  0  0  0  0  0
   -7.5128   55.2631   11.1733 H   0  0  0  0  0  0
   -5.2563   54.7756   11.6502 H   0  0  0  0  0  0
   -8.4407   53.2374   14.1286 H   0  0  0  0  0  0
   -6.8080   51.9641   15.3933 H   0  0  0  0  0  0
   -4.4324   51.9407   14.7980 H   0  0  0  0  0  0
  1  2  2  0  0  0
  2  3  1  0  0  0
  2 12  1  0  0  0
  3  4  2  0  0  0
  3 11  1  0  0  0
  4  5  1  0  0  0
  4 24  1  0  0  0
  5  6  1  0  0  0
  5  9  2  0  0  0
  6  7  2  0  0  0
  6 25  1  0  0  0
  7  8  1  0  0  0
  8  9  1  0  0  0
  8 26  1  0  0  0
  9 10  1  0  0  0
 10 11  2  0  0  0
 10 27  1  0  0  0
 11 28  1  0  0  0
 12 13  1  0  0  0
 12 29  1  0  0  0
 13 14  2  0  0  0
 13 15  1  0  0  0
 14 18  1  0  0  0
 14 30  1  0  0  0
 15 16  2  0  0  0
 15 31  1  0  0  0
 16 17  1  0  0  0
 16 32  1  0  0  0
 17 18  2  0  0  0
 17 33  1  0  0  0
 18 19  1  0  0  0
 19 20  1  0  0  0
 19 23  2  0  0  0
 20 21  1  0  0  0
 21 22  2  0  0  0
 22 23  1  0  0  0
M  CHG  1  20  -1
M  END
> <s_pdb_PDB_ID>


> <s_pdb_PDB_CLASSIFICATION>
4DE1_PROTEIN

> <s_pdb_PDB_format_version>
3.0

> <b_ppw_prepared>
1

> <s_ppw_prepared_with_version>
2020-1

> <b_ppw_created_disulfur>
1

> <s_ppw_het_states>
eJxVkksOwjAMRK9SdV1Q7MTQchXUG1TsWCHuTmwXHmVRjZ3POG94jTLehnv/aa3XaSjrNLickctPtoIUpCIrsiENeUHi1nBruBluhpvhZrgZboabdbeT7Bo7w87CzvX+/ny6QiGnk/+GExHg5FOOjfK7I2TgEsglEz00lB0ajcqOGo3Gjva9Q0CcdAXQOZjCOPEKpBOyHhpMGmuBVoghE1DCyByESPKIEkxmIsSTyRwbC0didIOpRS5GLiHjiHh2p3Luk75GB9X/zL0qpe8Y/ape57JX11jVmtUcVRXH7fWSZ3thZZ73i+TynobHc9vyu67vDwFpqEY=

> <r_ff_Potential_Energy-OPLS3e>
-225477.167187726

> <r_ff_RMS_Derivative-OPLS3e>
0.0497659129173574

> <b_ff_Minimization_Converged-OPLS3e>
1

> <r_i_Potential_Energy-OPLS_2005>
-8044.98365727967

> <r_i_RMS_Derivative-OPLS_2005>
0.047914509484394

> <r_i_Max_Derivative-OPLS_2005>
0.956891340432776

> <r_i_Stretch_Energy-OPLS_2005>
5.56761342937638

> <r_i_Bend_Energy-OPLS_2005>
147.51572550202

> <r_i_LJ-14_Energy-OPLS_2005>
344.769162936673

> <r_i_El-14_Energy-OPLS_2005>
-347.426459853652

> <r_i_Van_der_Waals_Energy-OPLS_2005>
-637.73366080319

> <r_i_Electrostatic_Energy-OPLS_2005>
-7623.40898367705

> <r_i_Dihedral_Energy-OPLS_2005>
65.732945186154

> <r_i_target_temperature>
298

> <s_user_Residue_ID>
_:1

$$$$
