:1syi_ligand
                    3D
 Schrodinger Suite 2020-1.
 30 31  0  0  1  0            999 V2000
   20.8260   14.5010   57.5680 C   0  0  0  0  0  0
   20.8810   13.0440   57.5190 N   0  0  0  0  0  0
   22.2080   12.3740   57.4970 C   0  0  0  0  0  0
   22.2400   11.0200   57.4930 N   0  0  0  0  0  0
   19.7250   12.2500   57.6040 C   0  0  0  0  0  0
   23.2100   13.1160   57.4860 O   0  0  0  0  0  0
   19.7900   10.8900   57.6220 C   0  0  0  0  0  0
   21.1160   10.2230   57.5340 C   0  0  0  0  0  0
   21.1840    8.9800   57.4860 O   0  0  0  0  0  0
   18.2910   12.7570   57.6120 C   0  0  0  0  0  0
   17.4400   11.4640   57.6990 C   0  0  0  0  0  0
   18.4250   10.2590   57.6340 C   0  0  0  0  0  0
   21.1450   15.0390   58.9950 C   0  0  1  0  0  0
   21.5240   16.5440   58.8350 C   0  0  0  0  0  0
   22.4710   16.8500   58.0640 O   0  0  0  0  0  0
   20.8510   17.3600   59.5430 O   0  5  0  0  0  0
   20.0300   14.7180   59.9580 N   0  3  0  0  0  0
   19.8281   14.7926   57.2510 H   0  0  0  0  0  0
   21.5101   14.8398   56.7878 H   0  0  0  0  0  0
   23.1505   10.5773   57.5081 H   0  0  0  0  0  0
   18.1431   13.2183   56.6454 H   0  0  0  0  0  0
   18.0828   13.4637   58.4147 H   0  0  0  0  0  0
   16.7397   11.4049   56.8730 H   0  0  0  0  0  0
   16.8675   11.4442   58.6272 H   0  0  0  0  0  0
   18.3244    9.6067   58.5009 H   0  0  0  0  0  0
   18.2782    9.6674   56.7297 H   0  0  0  0  0  0
   22.0164   14.5237   59.3775 H   0  0  0  0  0  0
   20.2937   15.0488   60.8765 H   0  0  0  0  0  0
   19.1707   15.1706   59.6743 H   0  0  0  0  0  0
   19.8951   13.7149   60.0012 H   0  0  0  0  0  0
  1  2  1  0  0  0
  1 13  1  0  0  0
  1 18  1  0  0  0
  1 19  1  0  0  0
  2  3  1  0  0  0
  2  5  1  0  0  0
  3  4  1  0  0  0
  3  6  2  0  0  0
  4  8  1  0  0  0
  4 20  1  0  0  0
  5  7  2  0  0  0
  5 10  1  0  0  0
  7  8  1  0  0  0
  7 12  1  0  0  0
  8  9  2  0  0  0
 10 11  1  0  0  0
 10 21  1  0  0  0
 10 22  1  0  0  0
 11 12  1  0  0  0
 11 23  1  0  0  0
 11 24  1  0  0  0
 12 25  1  0  0  0
 12 26  1  0  0  0
 13 14  1  0  0  0
 13 17  1  0  0  0
 13 27  1  0  0  0
 14 15  2  0  0  0
 14 16  1  0  0  0
 17 28  1  0  0  0
 17 29  1  0  0  0
 17 30  1  0  0  0
M  CHG  2  16  -1  17   1
M  END
> <s_pdb_PDB_ID>


> <s_pdb_PDB_CLASSIFICATION>
1SYI_PROTEIN

> <s_pdb_PDB_format_version>
3.0

> <b_ppw_prepared>
1

> <s_ppw_prepared_with_version>
2020-1

> <b_ppw_created_disulfur>
1

> <s_ppw_het_states>
eJxdkksOwyAMRK+CWJMIY8KnV6m4QdRdV1HuXhOjTggL9DQIZjzisGRf5i0rxsDO+OZMxwjcgAmYgQVY/8geSMAAhBvDjeHGcGO4sbgtNFjsqHUe6TX4OFWhP0gYSueZhQxhu4T0FMQzoAIdjlCEDh7uQh+UUMp8RQUk7WdaU0BN2hChrPnKFYzTU6gQNGnGoyqU0dniV7E9bGWf5Av4tdaSTmc+333XvbXzB8Hvcnc=

> <r_ff_Potential_Energy-OPLS3e>
-130108.214288408

> <r_ff_RMS_Derivative-OPLS3e>
0.0423017298048057

> <b_ff_Minimization_Converged-OPLS3e>
1

> <r_i_Potential_Energy-OPLS_2005>
-14272.0925986409

> <r_i_RMS_Derivative-OPLS_2005>
0.0470846997852205

> <r_i_Max_Derivative-OPLS_2005>
1.50763653086055

> <r_i_Stretch_Energy-OPLS_2005>
23.3049627631392

> <r_i_Bend_Energy-OPLS_2005>
390.950033285609

> <r_i_LJ-14_Energy-OPLS_2005>
723.118114676364

> <r_i_El-14_Energy-OPLS_2005>
-429.489275218043

> <r_i_Van_der_Waals_Energy-OPLS_2005>
-929.918990929064

> <r_i_Electrostatic_Energy-OPLS_2005>
-14188.4112694237

> <r_i_Dihedral_Energy-OPLS_2005>
138.35382620483

> <r_i_target_temperature>
298

> <s_user_Residue_ID>
_:1

$$$$
