:4k18_ligand
                    3D
 Schrodinger Suite 2020-1.
 43 46  0  0  1  0            999 V2000
  -18.1740  -35.6130    5.2680 C   0  0  0  0  0  0
  -18.5000  -36.9440    5.4710 C   0  0  0  0  0  0
  -19.8300  -37.3080    5.7080 C   0  0  0  0  0  0
  -20.8230  -36.3230    5.7260 C   0  0  0  0  0  0
  -20.4750  -34.9980    5.5140 C   0  0  0  0  0  0
  -19.1570  -34.6410    5.2790 C   0  0  0  0  0  0
  -18.7850  -33.1960    5.0640 C   0  0  0  0  0  0
  -18.1040  -32.9240    3.7450 C   0  0  0  0  0  0
  -17.2830  -31.8040    3.6440 C   0  0  0  0  0  0
  -16.6640  -31.5480    2.4510 C   0  0  0  0  0  0
  -16.8720  -32.3630    1.3890 N   0  0  0  0  0  0
  -17.6910  -33.4380    1.5310 C   0  0  0  0  0  0
  -18.2920  -33.7070    2.6940 N   0  0  0  0  0  0
  -17.7000  -34.0760    0.2850 C   0  0  0  0  0  0
  -16.8830  -33.3420   -0.5850 C   0  0  0  0  0  0
  -16.3850  -32.3330    0.0780 N   0  0  0  0  0  0
  -18.4850  -35.2510   -0.0380 C   0  0  0  0  0  0
  -18.4420  -35.6960   -1.1710 O   0  0  0  0  0  0
  -19.2610  -35.7310    0.9630 N   0  0  0  0  0  0
  -20.1380  -36.8230    0.9390 C   0  0  0  0  0  0
  -20.6640  -37.2430    2.1570 C   0  0  0  0  0  0
  -21.5390  -38.3100    2.2120 C   0  0  0  0  0  0
  -21.8950  -38.9580    1.0410 C   0  0  0  0  0  0
  -21.3790  -38.5500   -0.1760 C   0  0  0  0  0  0
  -20.5070  -37.4770   -0.2310 C   0  0  0  0  0  0
  -22.7450  -40.0030    1.0830 F   0  0  0  0  0  0
  -15.8660  -30.4810    2.2770 O   0  0  0  0  0  0
  -20.1680  -38.6770    5.9250 C   0  0  0  0  0  0
  -20.4280  -39.7680    6.0960 N   0  0  0  0  0  0
  -17.1420  -35.3411    5.0973 H   0  0  0  0  0  0
  -17.7181  -37.6906    5.4590 H   0  0  0  0  0  0
  -21.8566  -36.5874    5.8966 H   0  0  0  0  0  0
  -21.2617  -34.2641    5.4747 H   0  0  0  0  0  0
  -18.1410  -32.8813    5.8867 H   0  0  0  0  0  0
  -19.6717  -32.5674    5.0934 H   0  0  0  0  0  0
  -17.1298  -31.1489    4.4887 H   0  0  0  0  0  0
  -18.8816  -34.5067    2.8558 H   0  0  0  0  0  0
  -16.6450  -33.4938   -1.6278 H   0  0  0  0  0  0
  -19.1753  -35.2685    1.8493 H   0  0  0  0  0  0
  -20.3862  -36.7331    3.0650 H   0  0  0  0  0  0
  -21.9418  -38.6367    3.1596 H   0  0  0  0  0  0
  -21.6263  -39.0994   -1.0573 H   0  0  0  0  0  0
  -20.1604  -37.2004   -1.2106 H   0  0  0  0  0  0
  1  2  2  0  0  0
  1  6  1  0  0  0
  1 30  1  0  0  0
  2  3  1  0  0  0
  2 31  1  0  0  0
  3  4  2  0  0  0
  3 28  1  0  0  0
  4  5  1  0  0  0
  4 32  1  0  0  0
  5  6  2  0  0  0
  5 33  1  0  0  0
  6  7  1  0  0  0
  7  8  1  0  0  0
  7 34  1  0  0  0
  7 35  1  0  0  0
  8  9  2  0  0  0
  8 13  1  0  0  0
  9 10  1  0  0  0
  9 36  1  0  0  0
 10 11  1  0  0  0
 10 27  2  0  0  0
 11 12  1  0  0  0
 11 16  1  0  0  0
 12 13  1  0  0  0
 12 14  2  0  0  0
 13 37  1  0  0  0
 14 15  1  0  0  0
 14 17  1  0  0  0
 15 16  2  0  0  0
 15 38  1  0  0  0
 17 18  2  0  0  0
 17 19  1  0  0  0
 19 20  1  0  0  0
 19 39  1  0  0  0
 20 21  2  0  0  0
 20 25  1  0  0  0
 21 22  1  0  0  0
 21 40  1  0  0  0
 22 23  2  0  0  0
 22 41  1  0  0  0
 23 24  1  0  0  0
 23 26  1  0  0  0
 24 25  2  0  0  0
 24 42  1  0  0  0
 25 43  1  0  0  0
 28 29  3  0  0  0
M  END
> <s_pdb_PDB_ID>


> <s_pdb_PDB_CLASSIFICATION>
4K18_PROTEIN

> <s_pdb_PDB_format_version>
3.0

> <b_ppw_prepared>
1

> <s_ppw_prepared_with_version>
2020-1

> <b_ppw_created_disulfur>
1

> <s_ppw_het_states>
eJxdk0tuwzAMRK9ieG0EGsrxp1cpfIOgu66C3L0mGfXJ8SKYjCU9cUg/R41fw/f5WN23aSjHNLjcm5xLQQppyIqckXfkglyRGxKaoAmaoAmaoAmaoAmaoAmaQTNoBs2gGTSDZkFz/Q4ws7N3jG5EQCLXjFSkm8FabzhBhJ55i+jzUKMBmb1oQ3ZANCP7YL2h7h5LrFgx1jC2D8NTaGdkcTsrwlDF2D8paVBtyGivLga1yNqhbUsU5w2/GgtbohZRi+LqPgLWG9Zh8+rUoripz4cxKjkluhhUa2qHti0Rsk9I9Qkpt1qW8+1z9HrOr67c7ttyrhnn3f7/r69p+Pl9PPL3OF5/c+u/4A==

> <r_ff_Potential_Energy-OPLS3e>
-41990.8414728424

> <r_ff_RMS_Derivative-OPLS3e>
0.0443966507677983

> <b_ff_Minimization_Converged-OPLS3e>
1

> <r_i_Potential_Energy-OPLS_2005>
-8021.02440279787

> <r_i_RMS_Derivative-OPLS_2005>
0.0430968138356115

> <r_i_Max_Derivative-OPLS_2005>
1.13492340740979

> <r_i_Stretch_Energy-OPLS_2005>
13.632186620507

> <r_i_Bend_Energy-OPLS_2005>
203.07506354343

> <r_i_LJ-14_Energy-OPLS_2005>
403.279471679204

> <r_i_El-14_Energy-OPLS_2005>
-434.581746053985

> <r_i_Van_der_Waals_Energy-OPLS_2005>
-611.773773734245

> <r_i_Electrostatic_Energy-OPLS_2005>
-7728.21819649702

> <r_i_Dihedral_Energy-OPLS_2005>
133.562591644241

> <r_i_target_temperature>
298

> <s_user_Residue_ID>
_:1

$$$$
